      468
3999
 Cu         0.0000000000        0.0000000000        0.0000000000
 Cu         0.0000000000        4.4270557290        0.0000000000
 Cu         0.0000000000        8.8542442710        0.0000000000
 Cu         1.2779405470        2.2135942710        0.0000000000
 Cu         1.2779405470        6.6406500000        0.0000000000
 Cu         1.2779405470       11.0677057290        0.0000000000
 Cu         2.5560344530        0.0000000000        0.0000000000
 Cu         2.5560344530        4.4270557290        0.0000000000
 Cu         2.5560344530        8.8542442710        0.0000000000
 Cu         3.8339750000        2.2135942710        0.0000000000
 Cu         3.8339750000        6.6406500000        0.0000000000
 Cu         3.8339750000       11.0677057290        0.0000000000
 Cu         5.1119155470        0.0000000000        0.0000000000
 Cu         5.1119155470        4.4270557290        0.0000000000
 Cu         5.1119155470        8.8542442710        0.0000000000
 Cu         6.3900094530        2.2135942710        0.0000000000
 Cu         6.3900094530        6.6406500000        0.0000000000
 Cu         6.3900094530       11.0677057290        0.0000000000
 Cu         7.6679500000        0.0000000000        0.0000000000
 Cu         7.6679500000        4.4270557290        0.0000000000
 Cu         7.6679500000        8.8542442710        0.0000000000
 Cu         8.9458905470        2.2135942710        0.0000000000
 Cu         8.9458905470        6.6406500000        0.0000000000
 Cu         8.9458905470       11.0677057290        0.0000000000
 Cu        10.2239844530        0.0000000000        0.0000000000
 Cu        10.2239844530        4.4270557290        0.0000000000
 Cu        10.2239844530        8.8542442710        0.0000000000
 Cu        11.5019250000        2.2135942710        0.0000000000
 Cu        11.5019250000        6.6406500000        0.0000000000
 Cu        11.5019250000       11.0677057290        0.0000000000
 Cu        12.7798655470        0.0000000000        0.0000000000
 Cu        12.7798655470        4.4270557290        0.0000000000
 Cu        12.7798655470        8.8542442710        0.0000000000
 Cu        14.0579594530        2.2135942710        0.0000000000
 Cu        14.0579594530        6.6406500000        0.0000000000
 Cu        14.0579594530       11.0677057290        0.0000000000
 Cu         0.0000000000        2.9513704860        2.0869457760
 Cu         0.0000000000        7.3785590280        2.0869457760
 Cu         0.0000000000       11.8056147570        2.0869457760
 Cu         1.2779405470        0.7379090280        2.0869457760
 Cu         1.2779405470        5.1649647570        2.0869457760
 Cu         1.2779405470        9.5920204860        2.0869457760
 Cu         2.5560344530        2.9513704860        2.0869457760
 Cu         2.5560344530        7.3785590280        2.0869457760
 Cu         2.5560344530       11.8056147570        2.0869457760
 Cu         3.8339750000        0.7379090280        2.0869457760
 Cu         3.8339750000        5.1649647570        2.0869457760
 Cu         3.8339750000        9.5920204860        2.0869457760
 Cu         5.1119155470        2.9513704860        2.0869457760
 Cu         5.1119155470        7.3785590280        2.0869457760
 Cu         5.1119155470       11.8056147570        2.0869457760
 Cu         6.3900094530        0.7379090280        2.0869457760
 Cu         6.3900094530        5.1649647570        2.0869457760
 Cu         6.3900094530        9.5920204860        2.0869457760
 Cu         7.6679500000        2.9513704860        2.0869457760
 Cu         7.6679500000        7.3785590280        2.0869457760
 Cu         7.6679500000       11.8056147570        2.0869457760
 Cu         8.9458905470        0.7379090280        2.0869457760
 Cu         8.9458905470        5.1649647570        2.0869457760
 Cu         8.9458905470        9.5920204860        2.0869457760
 Cu        10.2239844530        2.9513704860        2.0869457760
 Cu        10.2239844530        7.3785590280        2.0869457760
 Cu        10.2239844530       11.8056147570        2.0869457760
 Cu        11.5019250000        0.7379090280        2.0869457760
 Cu        11.5019250000        5.1649647570        2.0869457760
 Cu        11.5019250000        9.5920204860        2.0869457760
 Cu        12.7798655470        2.9513704860        2.0869457760
 Cu        12.7798655470        7.3785590280        2.0869457760
 Cu        12.7798655470       11.8056147570        2.0869457760
 Cu        14.0579594530        0.7379090280        2.0869457760
 Cu        14.0579594530        5.1649647570        2.0869457760
 Cu        14.0579594530        9.5920204860        2.0869457760
 Cu         5.1419696531        1.4948575355        4.1313938327
 Cu         3.8545715008        3.6697492159        4.1263584594
 Cu         6.3985334146       12.5375702875        4.1384319925
 Cu         2.5446067132        5.9212300219        4.0994648826
 Cu         3.8139940573       12.5509157005        4.1336564604
 Cu        11.4960439610        3.6351502863        4.0793250105
 Cu         2.6158724809       10.3799567055        4.1091832030
 Cu         1.2866762040       12.5276984851        4.0940712441
 Cu         5.1783709757       10.3548097356        4.1631191797
 Cu        12.8496977420        5.8527302887        4.1777916748
 Cu        10.2104714550        1.4572549114        4.1737706643
 Cu         2.5871785262        1.4399056012        4.0905212981
 Cu        13.9792017739        8.1148771539        4.2372589148
 Cu        12.8430569618       10.3099429954        4.0727369385
 Cu         7.6802362940       10.3945074260        4.1438749132
 Cu         3.8839655995        8.0944097215        4.1146416137
 Cu        12.7977183949        1.4709411986        4.1198656675
 Cu         7.6559270802        1.4559972376        4.1147730658
 Cu         8.9964659855        8.2084026429        4.1151474829
 Cu        11.5591042078       12.5163355185        4.1279850184
 Cu         9.0289544723       12.5738823302        4.1948956123
 Cu         0.0512642747        5.9354763058        4.0997160409
 Cu        11.4955770699        8.1175161819        4.0662257871
 Cu         6.3855726661        8.1359190796        4.1594315277
 Cu         6.3792144632        3.6935523630        4.0825535076
 Cu         1.2487563876        8.1462131569        4.1544324151
 Cu        10.2093294261       10.3395038791        4.1173333434
 Cu         5.0804716574        5.9182695185        4.1450290729
 Cu        10.2335868408        5.8814078247        4.1006782783
 Cu        14.1149396024        3.7222879575        4.1833763036
 Cu        14.0213611943       12.5572093180        4.1226106550
 Cu         0.0107069186        1.4782366672        4.1494839411
 Cu         1.3042081909        3.7361860589        4.1372623179
 Cu         0.0040930639       10.3759940404        4.0955236943
 Cu         8.9127750535        3.7650789927        4.0129601772
 Cu         7.6436301520        5.9814126624        4.1217190099
 Cu         3.7556540788        2.2391808930        6.2899152490
 Cu         5.0596743022        0.0687657652        6.2038960012
 Cu        12.7172702824        8.8666667474        6.3206149304
 Cu         5.0643762693        4.3853005880        6.1758129216
 Cu        11.5078718540        2.1282564466        6.1772088945
 Cu         8.9165229052        6.7285860564        6.1228051685
 Cu         3.8965430378       11.0299344000        6.2275134245
 Cu        12.7580860756        4.4368974640        6.2104143051
 Cu         6.4168918020       11.1533503285        6.2247174326
 Cu         2.5700247906        8.8735510317        6.1633938156
 Cu         1.2522048575       11.1097588854        6.1988151557
 Cu         7.6934880058        0.0955241723        6.3206217914
 Cu         6.3933634100        6.6989808746        6.2114179434
 Cu         6.4186561331        2.2623483544        6.2875328515
 Cu         3.7818985190        6.6333298554        6.1411899783
 Cu         2.5406061798        4.4055874146        6.2187243863
 Cu        -0.0045364734       -0.0202740287        6.1624029201
 Cu        11.5558017221       11.0330509341        6.1405350591
 Cu        10.2621424009        4.4470553466        6.1487721905
 Cu         7.6455458811        8.9506032161        6.1665521341
 Cu         2.5429469647        0.0040159225        6.1942614572
 Cu         5.0540189348        8.8787826839        6.2315301430
 Cu         1.2594907127        6.6591077839        6.2520023587
 Cu         8.9571453345        2.3233701914        6.1037971281
 Cu        12.7402000208        0.0344728724        6.2621012502
 Cu        14.0355429152        6.5578870849        6.2445327950
 Cu        10.1695741385       -0.0203774248        6.3265916323
 Cu        10.1205691926        8.9153858319        6.1704030109
 Cu         8.9439897739       11.0999580219        6.3224791986
 Cu        11.4893760145        6.5929682197        6.2281636225
 Cu        14.0302073485        2.1834633646        6.2084660261
 Cu         7.7229205119        4.4785997070        6.1237109473
 Cu        -0.0369121524        8.8786784966        6.1685686958
 Cu         1.3022917410        2.1248464381        6.2073442933
 Cu        13.9534177271       11.1155048640        6.1671541358
 Cu         0.0564362395        4.3667092040        6.3519509410
  O         4.3641132451       14.3485293004        9.7671124350
  O         2.2821381713       12.0328928792        9.1704837290
  O         8.2157372518       13.7877905603        9.4427241346
  O        -0.0468103766        0.8821650774        9.2327241310
  O        -2.3002758099        4.3635715804        9.3974158430
  O         0.2222953576        7.5124736601        9.8290606009
  O         9.9816714324        6.9877651800        9.0017282850
  O        12.8059580608       11.8778905651        9.5738500771
  O         4.1053716475        9.9625268277        9.3897760468
  O        12.9868612792        6.7111111923       12.5610496849
  O        12.7319185852        7.1306030003        9.4566555461
  O         6.0256220985        2.3695704272       11.7297750616
  O        -0.9028326980       14.4510286191       12.6897011589
  O         8.4644329486        2.9345904092       10.9067774537
  O        10.8673930116        3.0975596535       14.3366815741
  O         0.3813472735        8.5012794843       12.4005398242
  O         2.1571032808       10.5313926145       12.5309574127
  O         4.8903177247       10.5608027609       11.9759615926
  O         0.4682213770        4.6741920075        9.4514335791
  O        10.2611396160        2.9415924576        8.9545170466
  O        10.8444298109        9.8676057300        9.6166660969
  O        -1.4103096029       11.6950918181       13.1173675185
  O         5.9106843261        6.8415682128       13.1289902818
  O        10.7672925101       14.9064962401       11.9083361258
  O         3.7855488537        3.6690638549       12.8083161715
  O         7.3065805703        9.8168101848       13.0449195208
  O         5.0053931436       13.3560269958       13.0400267948
  O        -0.2553947794        4.2879003452       13.1509693148
  O        -1.8781285067        6.2830193576       15.4529971645
  O        10.6960789512        9.8665399336       13.1385539109
  O         8.4170172697       10.5530104752       10.5112449352
  O         2.7066191344        8.9823340370       14.8224066204
  O         8.6095866446        2.2919112871       16.6305022106
  O         2.3701009119       13.4794861947       12.8055391558
  O        -5.2389095342       12.2386061323       12.2727957170
  O         9.3471455360        4.9560007003       12.6030795258
  O         7.3859796192        4.5141950861       15.5348983655
  O         8.3477985892        7.0301653566       14.6214941468
  O         8.2633470314       12.7610136272       14.1509922829
  O        10.0296472346        7.5246228768       11.7911328678
  O        13.2902875887        3.6455140295       15.2100707511
  O         5.6618893203        6.1285510805       17.4331353723
  O         5.3829681412        8.1077059195       15.3760881518
  O         7.0593964394       19.0499531197       19.8636012560
  O        14.8195585394       10.7628239476       15.7090133889
  O        -1.0599219620        2.6117801769       17.4368306035
  O         2.8337681814        5.2307807255       16.4023902128
  O         5.2049248877       11.8650712567       15.4152963308
  O         1.2544518698        6.3772540331       14.6264190647
  O        -0.1133561685        6.5844851818       18.1850838473
  O         1.8469214974       10.4991977453       16.9425940108
  O        12.8901293052        8.9029853528       16.1552727128
  O         9.7592509209       12.0134294618       16.5840681112
  O         2.9442605501       15.6969477757       15.1097265850
  O        10.3051763171       16.6877968109       18.6982341201
  O        -1.3853639339       13.2878763188       17.0086783376
  O         1.0378398145        4.0684839736       18.2182931345
  O         6.5965401111        9.6607684013       18.6514601513
  O        13.2092447678        3.6409030627       19.8801914596
  O         6.3924197302       12.7018125281       17.6264568693
  O        11.7617288585       12.8619148377       15.0414724372
  O        10.1801246258        9.5618953382       15.8743635392
  O         9.5632472107        5.8991986464       19.0046284771
  O         2.8330264819       13.3292528966       16.5411113900
  O         3.7213166202        6.5484629867       21.8175308190
  O         8.6684802536        7.9435473040       17.2788356013
  O        10.3866518425        9.8978450937       20.8584565659
  O         1.7084104111        8.7200075093       19.0626208587
  O         4.6879300846        8.7524683434       20.2616728951
  O        12.4460223115       10.1822571189       18.5493463405
  O        -2.6133913114       12.6983296312       19.5722746882
  O         1.8058348458        4.4455917154       21.3281990836
  O         4.3735961096       13.8228255552       19.1448102033
  O         8.7737418745       12.7130454103       18.9679082451
  O        -0.1895306456        4.6957306112       23.0233040011
  O         5.6665030536       12.4079890223       21.0739829831
  O         1.5194978419        7.9219407490       22.9294744375
  O         6.5176355483       16.2977663304       20.0601360689
  O        11.2102166464        7.3853322597       20.8074862388
  O         7.7607928610       10.6221773621       20.7253485829
  O         0.6878831230       12.2588120790       20.0242554183
  O        10.6278071620       14.1734342622       20.3333793813
  O         8.6925192231       10.8383209230       23.9843033413
  O         5.3523985561       17.8616332124       23.0386937617
  O        -0.9039888381        9.2669619312       22.8829756125
  O        13.6604311318        6.1601702810       20.4749434815
  O        13.2278399914       16.0764916881       22.4780933529
  O         7.0595438144        6.5519576105       22.3416250393
  O        10.4157507220       13.1323383929       22.9267306815
  O        14.7725492480        9.7822753638       20.1323578722
  O         4.2564425760        1.7516237945       22.9341900162
  O         1.5408477379       14.0257089324       23.1797942523
  O        17.2748481407       11.1826807099       23.0547478616
  O        10.0655004355       19.5580725900       23.0908616977
  O        13.3407620644        7.0459830339       23.3132722091
  O         4.1428601522       10.4803212598       22.0272631878
  O         6.5565571244        9.2621284566       23.2948228524
  O         8.0923949020       16.5162107282       22.5621029157
  O        10.6122184839        3.5109533483       23.2712802929
  O        12.5342339742       11.5799005983       23.3678531465
  O        11.0676385417        9.2725553212       23.5057447888
  O         7.0639673681       13.4927661479       23.0189319998
  O        -1.3375950383       13.6442432665       21.8428279433
  H         4.6923670401        1.4115850571        8.9515037753
  H         8.6183802634       14.4102659882        9.9948400763
  H         2.4033214767       12.2659012634        8.2088959204
  H        -1.3229744523        4.3708813106        9.3716921175
  H        10.9716098878        7.1987561187        8.8310721167
  H        -0.7595196738        7.4021185482        9.7508492504
  H         0.0522647391        1.3820519388        8.3723881750
  H         4.5097276816        4.1790064602        8.8143170431
  H         6.8031028785        4.5157336638        9.4322090970
  H         2.9632821337        6.3542380534        8.6469564170
  H         7.7955398965        6.6726451899        9.8325562276
  H        15.5029230031       13.1923140364        9.0555602023
  H         3.4621223834       13.9905208167        9.5537384073
  H         6.1918027803        8.7254476934        9.9424799937
  H         2.5298830235        8.7152527197        8.9890408844
  H         8.5378884204       14.1331652547        8.5489154523
  H         0.3548780447        7.6782357167       10.7945905514
  H        -1.9112284829       11.6842665958        8.8219838746
  H         9.6569423871        7.6229464115        8.3332711980
  H        -2.4969300247        4.0256165667        8.4860158320
  H         2.8340807982       11.1756365465        9.3224349905
  H        -3.2402677832        6.3885978302       12.2341711691
  H        12.7540993958        7.5095449648        8.5807656877
  H        13.6426548136        6.0614299223       12.2059079559
  H         5.2397090392        2.2407197023       11.0868008473
  H        -1.2229580280       15.0169143187       13.4936864707
  H         1.0513203628        9.2058724429       12.2037170022
  H        11.7309790544        3.1073101445       14.8011819904
  H         7.5474391865        2.5471719998       10.9498112084
  H        12.0313061633       11.3873546204        9.2755247875
  H         3.9314407466       10.3951210229       12.0357420227
  H        10.7381270117        9.5764155830        8.7001082138
  H         9.8382877823       10.0780603373        9.9815715290
  H         8.5354675852        3.6802337192       11.5599853518
  H         5.7238029848        3.0990996901       12.3039780624
  H         0.4920316459        5.6993873845        9.5740174315
  H        12.8444510728        6.1645874618        9.3086819316
  H         5.5914790274        6.9037932309       12.2389497302
  H        -1.0206901758       13.4304035254       12.8500266657
  H         9.7265490320        3.1748882681        8.1408327900
  H         2.3982566035       10.1135107538       13.4024771293
  H        10.1885294447        2.9118201871       14.9794737009
  H         4.8182288834       11.5142473903       12.3033234876
  H         0.9284390509        4.4951640187        8.5855269388
  H         5.7831859445       13.9427196184       12.8836366730
  H         1.9945064698       11.5067460859       12.6582731794
  H         6.3729648087        9.6695126699       12.7776534304
  H        10.8507163791        2.0996528335       12.7104312819
  H        -2.0874159957        6.7042931957       14.5755095667
  H         0.6280968795        7.9436592196       13.1336653877
  H         7.5596526728        9.0075664409       13.4623170571
  H         0.3113012383        4.9879654900       13.4963418899
  H        -2.1136076142       11.9536414132       13.7889003327
  H        -0.9473445304        4.0858551518       13.8553790458
  H         4.0259158279        4.5941482364       12.9576387234
  H         8.0819190349        9.9730963609       11.2796405061
  H         9.5775642419        2.9636064815        9.6406247515
  H         9.8045707448       14.9679786038       11.6277848489
  H        -0.7588717147       11.1909586067       13.6911928696
  H        -2.1489438687        7.0832431844       16.0465612746
  H         6.8522508292        6.7541366893       13.0493505940
  H         8.2425733660        1.3737973866       16.7366038570
  H         3.5825585732        3.2002809124       13.7315761343
  H        10.6466584160       10.8309815446       12.7942412025
  H         5.1690543528       12.8853924315       13.8676697859
  H        10.6611212524       12.9895601044       11.9751671480
  H         2.1814226460        8.1228338689       14.7608713023
  H         7.5917062026       12.0272912182       13.9035634397
  H         9.9072384448        7.5947904674       10.7426679396
  H        10.6135907413        9.9470491633       14.0995036631
  H         3.3096911535       13.5076257822       13.0869527606
  H         8.9003236012       11.3263773126       10.9660317103
  H         6.0599841523        6.1857745644       18.3239423160
  H        -5.8427670110       12.5262442990       12.9230761411
  H        13.3151095995        4.6375033119       15.4433570514
  H         4.4321869127        8.0787200015       15.3460487992
  H        10.0912451658        4.6401180111       13.1667086359
  H         8.3145369678        7.3906083176       15.5703701700
  H         7.9767071336        5.1033058225       15.0323466125
  H         7.8860927999        2.9979939886       16.4676542967
  H         2.3114025805        9.5341090942       15.6391101632
  H         9.6301753613        5.8371688370       12.1933017343
  H        13.5491810505        3.1431061414       16.0199454668
  H        -1.3906236773        3.0052770942       18.2878458922
  H         9.2590020644        6.9894383456       14.3990366813
  H         8.5971281148       12.4890580437       15.0244954071
  H         1.8373173922       13.8686971670       13.4989212340
  H         5.8342453132        6.9280259874       16.8689963627
  H         7.0659071275        5.0163082474       16.2895903776
  H         5.8995439340       12.1460156400       16.0605662842
  H        10.1170433038        8.4925452554       12.0795795331
  H         0.2563691791       10.6073966355       16.2800567086
  H         5.6285217973        7.5360924242       14.5639336837
  H         3.7032792468        5.2470739451       16.7800470424
  H         9.4898691415       12.2010353903       17.5667247452
  H         6.8526250686       18.0540968521       19.9828725045
  H         2.8193571663       16.3824093180       15.7733664520
  H         6.9457942985       19.5460646494       20.7103310427
  H        15.7057959562        6.3348188323       15.0186913153
  H        -1.0296626090       11.4798608716       16.1610129219
  H        13.5908443304        9.4924094895       15.7693087079
  H         0.4579428414        7.3479208819       18.4495356925
  H        -1.1182475017        1.6351031293       17.4559539986
  H         1.9220883867        6.0507023706       15.3008904858
  H         5.0930082580       10.8972979424       15.4681018973
  H         1.9054377320       10.0778795761       17.8324344207
  H         0.4310942667        3.4163653289       17.7712487253
  H         2.2704769127        4.7640649401       17.0880903886
  H         6.4548282040       10.5049237844       18.1390423913
  H        12.2857445974        3.6285780781       19.5171742299
  H         9.9149351774       17.6449646340       18.7127704736
  H         9.8163575991       10.9823943056       16.5659147949
  H         0.4935029557        4.9414393008       18.2862472483
  H         2.0178145114       11.4751222860       17.0042702350
  H        11.1530904517        9.3805478863       16.0632099888
  H        13.1894281297       13.1625815832       16.3510629426
  H        -0.7589666993        6.4801380120       18.9622011841
  H         3.3076075030       14.9729993191       15.5834629634
  H         9.8344700411        2.9738581488       17.9411454027
  H        12.7731141686        9.2427135811       17.0443493026
  H         3.6395275882       12.7767422257       16.3059591342
  H         7.1864750810       12.8780134386       18.1968693315
  H        11.4914353075       13.7402268511       14.8427421593
  H         3.1255455904        7.3268566715       22.0879241281
  H        11.1602550727       12.4332277287       15.7467282394
  H         8.7061108083        5.8580795415       19.4720702762
  H         5.6931101427        9.2830128218       18.9725819661
  H        -1.7284083142       12.9377024550       17.8651925030
  H         8.0018567767        8.4749891107       17.8042490848
  H         9.7998516618        9.0082646029       16.5852129227
  H         4.1157640078        6.2879048357       22.6226914522
  H        13.3253836871        4.6087629280       19.9810567450
  H         8.9715627989        7.2084168844       17.8933674113
  H         5.6960556452       13.2241164672       18.0583256307
  H         4.8412992925        7.8971163021       20.7040539843
  H         1.4559183318        4.4032998490       20.4177772983
  H         3.2181042642       13.8316733017       17.3154057711
  H        10.6202163646        9.7861727919       21.8175273689
  H         4.4226024794        9.4397708219       21.0053765580
  H         2.5700149379        8.8950609088       19.5373755263
  H        10.1416997819        6.4363877008       19.5992133651
  H        12.5819916495       11.7603508825       19.4218078264
  H        -3.6702614258        9.7820603935       18.8662329646
  H         8.4868198922       11.9207878547       19.4782883275
  H         9.3926782318       10.0134991962       20.6805722436
  H         1.0246627408        9.2634121095       19.5760789617
  H         0.6651749250        8.4449680808       23.0651076989
  H         0.4452832049       17.9309856395       23.7730062097
  H         5.0120696565       11.8115919723       21.5614157458
  H        -2.0872266515       13.0336906109       20.3066810078
  H         0.4360225660        4.7655010839       22.2584459686
  H         4.7612400477       13.4247363244       19.9352845891
  H        13.1595122120        9.7721088948       19.0614485582
  H         2.6077077135        5.0294854403       21.3234928228
  H         7.9139668847       10.3304821757       23.4784394596
  H         7.1032365172        3.0753143810       20.8120100227
  H         4.5662704199       14.7567106764       19.2564260301
  H        11.4708848073       13.8565706179       19.9300204719
  H         1.5388512638        7.4157664218       23.8073428405
  H         9.3924690905       13.2317530297       19.5357742027
  H         7.0491543376       11.3814958995       20.8372699842
  H         8.7930529029       11.6747555926       23.5265742108
  H        10.7476634683        8.3009097742       20.7428484137
  H         5.6136869184        4.2494677982       23.9689618723
  H        10.8018980029        7.0815876546       21.6946713376
  H        10.3924819687       15.0027203150       19.8777675498
  H        -2.0411438779       16.3323192639       21.5018075286
  H         6.0713830807       13.0833082040       21.7439291398
  H        12.8386947527        6.6482899935       20.6071436487
  H         6.5052462310        5.6505459744       22.5607000728
  H         0.5423508877       12.9521450737       20.6964575736
  H        10.5341208942       13.6028007378       22.0594346445
  H         7.1494459544       16.2328279870       19.3009127417
  H         1.2358290984       12.5653909205       19.2986706807
  H         7.2541441731       10.0929668960       19.9892765992
  H         3.3105171189        1.7821149699       22.7212868964
  H         5.1094325416        3.6959266130       22.6970078588
  H        10.1124508303       13.7768584144       23.5917149403
  H        -1.4895401095        8.4812835423       23.1758846003
  H        -1.1371684682       10.0805927802       23.3886489944
  H        14.1192816534        6.2605028055       21.3330761772
  H        13.9006251511       16.7382614948       22.8876527800
  H        17.1052657401       12.2076662846       23.0032926388
  H        15.0151865316       10.7418408116       20.1357314814
  H         6.3642306303        8.8608879538       24.1469603338
  H         7.9546883392        6.2968352487       22.5461580168
  H         8.0967338819       16.3439361115       23.5593718691
  H        14.5092156915        9.6040041290       21.0252938414
  H        10.3187237934       18.6503707826       23.1222182839
  H         0.7031931274       14.3055260910       22.8261304681
  H        12.3751252366       20.3141767882       23.3020881743
  H         1.6750739201       14.5215661965       24.0015297725
  H         4.7472665137       10.2020443406       22.6918996504
  H        17.1195074716       10.9289585276       23.9742876533
  H        11.6926684631       12.0467999360       23.2794971506
  H         4.1899702636        1.8364179847       23.9255233332
  H        10.4584255646        3.3506930208       24.2359876550
  H        11.7189882869        9.9807180447       23.6581550388
  H        10.1644047885        9.5884224115       23.7104603146
  H         7.5321226198       14.2348703327       22.6103112198
  H         6.7660387940       13.9492631201       23.8203755424
  H        13.0047647682       11.8448324611       24.2122447998
  H        13.8179210354       14.4931750463       22.2498050614
  H        10.1608601606       19.8738082690       24.0536107183
  H        13.7202764055        6.8100657125       24.2065093966
  H         9.0983401298       16.5162315873       22.5396015985
  H         6.9542573418        8.5029451760       22.7615602257
  H        -1.7789588193       12.8926528180       22.3488996867
  H         3.3414574913       10.8980254925       22.4542230564
  H        11.5867075454        3.1210896365       23.0600668550
  C         4.7553744904        5.1956586667        9.1136556157
  C         6.0700767469        5.4065811235        9.4013468040
  C         4.0103728584        6.3514564849        9.0511391126
  C         6.6950166246        6.6554993254        9.6128394345
  C         5.8141444638        7.7348831436        9.7117775051
  C         4.4647766610        7.6158094562        9.3777688717
  C         3.6778610424        8.7980299479        9.1541285543
  K        12.5088021308        1.3431814495        9.7641457151
  K         1.0796692330        2.4177487442       11.1792050353
  K        -2.2011289793        9.5855210356       11.6108556338
  K         5.9526486692       12.0526532036        9.4463081223
