      468
4000
 Cu         0.0000000000        0.0000000000        0.0000000000
 Cu         0.0000000000        4.4270557290        0.0000000000
 Cu         0.0000000000        8.8542442710        0.0000000000
 Cu         1.2779405470        2.2135942710        0.0000000000
 Cu         1.2779405470        6.6406500000        0.0000000000
 Cu         1.2779405470       11.0677057290        0.0000000000
 Cu         2.5560344530        0.0000000000        0.0000000000
 Cu         2.5560344530        4.4270557290        0.0000000000
 Cu         2.5560344530        8.8542442710        0.0000000000
 Cu         3.8339750000        2.2135942710        0.0000000000
 Cu         3.8339750000        6.6406500000        0.0000000000
 Cu         3.8339750000       11.0677057290        0.0000000000
 Cu         5.1119155470        0.0000000000        0.0000000000
 Cu         5.1119155470        4.4270557290        0.0000000000
 Cu         5.1119155470        8.8542442710        0.0000000000
 Cu         6.3900094530        2.2135942710        0.0000000000
 Cu         6.3900094530        6.6406500000        0.0000000000
 Cu         6.3900094530       11.0677057290        0.0000000000
 Cu         7.6679500000        0.0000000000        0.0000000000
 Cu         7.6679500000        4.4270557290        0.0000000000
 Cu         7.6679500000        8.8542442710        0.0000000000
 Cu         8.9458905470        2.2135942710        0.0000000000
 Cu         8.9458905470        6.6406500000        0.0000000000
 Cu         8.9458905470       11.0677057290        0.0000000000
 Cu        10.2239844530        0.0000000000        0.0000000000
 Cu        10.2239844530        4.4270557290        0.0000000000
 Cu        10.2239844530        8.8542442710        0.0000000000
 Cu        11.5019250000        2.2135942710        0.0000000000
 Cu        11.5019250000        6.6406500000        0.0000000000
 Cu        11.5019250000       11.0677057290        0.0000000000
 Cu        12.7798655470        0.0000000000        0.0000000000
 Cu        12.7798655470        4.4270557290        0.0000000000
 Cu        12.7798655470        8.8542442710        0.0000000000
 Cu        14.0579594530        2.2135942710        0.0000000000
 Cu        14.0579594530        6.6406500000        0.0000000000
 Cu        14.0579594530       11.0677057290        0.0000000000
 Cu         0.0000000000        2.9513704860        2.0869457760
 Cu         0.0000000000        7.3785590280        2.0869457760
 Cu         0.0000000000       11.8056147570        2.0869457760
 Cu         1.2779405470        0.7379090280        2.0869457760
 Cu         1.2779405470        5.1649647570        2.0869457760
 Cu         1.2779405470        9.5920204860        2.0869457760
 Cu         2.5560344530        2.9513704860        2.0869457760
 Cu         2.5560344530        7.3785590280        2.0869457760
 Cu         2.5560344530       11.8056147570        2.0869457760
 Cu         3.8339750000        0.7379090280        2.0869457760
 Cu         3.8339750000        5.1649647570        2.0869457760
 Cu         3.8339750000        9.5920204860        2.0869457760
 Cu         5.1119155470        2.9513704860        2.0869457760
 Cu         5.1119155470        7.3785590280        2.0869457760
 Cu         5.1119155470       11.8056147570        2.0869457760
 Cu         6.3900094530        0.7379090280        2.0869457760
 Cu         6.3900094530        5.1649647570        2.0869457760
 Cu         6.3900094530        9.5920204860        2.0869457760
 Cu         7.6679500000        2.9513704860        2.0869457760
 Cu         7.6679500000        7.3785590280        2.0869457760
 Cu         7.6679500000       11.8056147570        2.0869457760
 Cu         8.9458905470        0.7379090280        2.0869457760
 Cu         8.9458905470        5.1649647570        2.0869457760
 Cu         8.9458905470        9.5920204860        2.0869457760
 Cu        10.2239844530        2.9513704860        2.0869457760
 Cu        10.2239844530        7.3785590280        2.0869457760
 Cu        10.2239844530       11.8056147570        2.0869457760
 Cu        11.5019250000        0.7379090280        2.0869457760
 Cu        11.5019250000        5.1649647570        2.0869457760
 Cu        11.5019250000        9.5920204860        2.0869457760
 Cu        12.7798655470        2.9513704860        2.0869457760
 Cu        12.7798655470        7.3785590280        2.0869457760
 Cu        12.7798655470       11.8056147570        2.0869457760
 Cu        14.0579594530        0.7379090280        2.0869457760
 Cu        14.0579594530        5.1649647570        2.0869457760
 Cu        14.0579594530        9.5920204860        2.0869457760
 Cu         5.1174600493        1.5247403168        4.1177047092
 Cu         3.7880669163        3.6482823247        4.1227106570
 Cu         6.3445270666       12.5940933330        4.1642679219
 Cu         2.6276594734        5.9541227081        4.0979721854
 Cu         3.8300514063       12.5747411630        4.0406412151
 Cu        11.4971010111        3.8104949479        4.1961432974
 Cu         2.5227240590       10.3621077352        4.1134243484
 Cu         1.2108146314       12.5988134443        4.1531144496
 Cu         5.0814256725       10.4177812536        4.1384029016
 Cu        12.8457117880        5.9426585071        4.2030456046
 Cu        10.1610990537        1.5052616722        4.1457109802
 Cu         2.4845065360        1.5025683953        3.9677084244
 Cu        14.1767174078        8.1067019939        4.1127607157
 Cu        12.7503256995       10.3613273876        4.0881430638
 Cu         7.7165509937       10.2722366150        4.1023813315
 Cu         3.8362746814        8.2110181255        4.1159095448
 Cu        12.7480827114        1.6004813470        4.1070740891
 Cu         7.5509856378        1.5513597504        4.0632763866
 Cu         8.9482183205        8.0556941549        4.2679008494
 Cu        11.4011467831       12.4248498244        4.1836699845
 Cu         8.8261637659       12.6257625999        4.1932036185
 Cu         0.0712290426        5.8982911865        4.1592992105
 Cu        11.5384402271        8.1807530497        4.1014148825
 Cu         6.3752531143        8.0981357362        4.1693636262
 Cu         6.4491628233        3.7269777900        4.1907395919
 Cu         1.3034448066        8.2172750275        4.1519930602
 Cu        10.1487830382       10.3332635853        4.1115956563
 Cu         5.1166172204        5.8498757470        4.1610296008
 Cu        10.2139747654        5.8925752513        4.2061397339
 Cu        14.0369721722        3.8161826288        4.2143358514
 Cu        14.0723501972       12.5539919918        4.0400924133
 Cu        -0.0768316962        1.4242077976        4.0678695278
 Cu         1.2115888647        3.7561332796        4.0700548901
 Cu        -0.0870179369       10.3951507666        4.1630577011
 Cu         8.9397645931        3.6851008673        4.1381727815
 Cu         7.5901357743        5.8642669865        4.1516714625
 Cu         3.8756193484        2.2734840651        6.1209477270
 Cu         5.1164717954        0.0796027678        6.1252710215
 Cu        12.6863179098        8.8360826600        6.2265433954
 Cu         5.1813314191        4.4637592172        6.1854613668
 Cu        11.5580244230        2.2150676656        6.2729656518
 Cu         9.0535872771        6.5566108288        6.3078119137
 Cu         3.8477182171       11.0601103015        6.2353219423
 Cu        12.8171680373        4.3939989782        6.2497609529
 Cu         6.2784249150       11.0734330179        6.1513322232
 Cu         2.6425286336        8.9902800583        6.4503106795
 Cu         1.3031144372       11.1056323287        6.4097868312
 Cu         7.6443674975        0.0471061634        6.1890723066
 Cu         6.5711694725        6.6641194130        6.2866192998
 Cu         6.4843462075        2.2569431509        6.1996295879
 Cu         3.8840686031        6.7341464611        6.1904438148
 Cu         2.5385583060        4.5032709558        6.0738493749
 Cu         0.0786987509        0.0344154648        6.1598466367
 Cu        11.4153057677       11.1029717390        6.3786220740
 Cu        10.3895707610        4.3821899577        6.2736691736
 Cu         7.6511034449        8.9845792449        6.2396905095
 Cu         2.7180338665        0.0448874005        6.1412707949
 Cu         5.1449176689        8.8224849336        6.1346769119
 Cu         1.2792898151        6.6518648564        6.1604082629
 Cu         8.9913857739        2.2310770724        6.2132410655
 Cu        12.7129248307        0.1440156349        6.1302161826
 Cu        14.0548896170        6.7246242591        6.3049641914
 Cu        10.1287429456        0.1239681478        6.1617842160
 Cu        10.2142745930        8.8609927505        6.2966710645
 Cu         8.8688295702       11.1623001658        6.2730214251
 Cu        11.5185297761        6.5663152374        6.2642235025
 Cu        14.1737382882        2.2646016521        6.1357989848
 Cu         7.7898826315        4.4371465318        6.3992593308
 Cu         0.1309151058        8.9875490240        6.2757238500
 Cu         1.4040489798        2.2057346060        6.1104041311
 Cu        13.9833196836       11.0902219663        6.1495150917
 Cu         0.0819067656        4.3823151117        6.2508749235
  O         3.1876127166       15.0977852497        9.2120658543
  O         3.3159680072       12.3830647786        9.6302006767
  O         9.0665634762       11.7783563039        9.2027902462
  O         0.1965568448        1.1798437257        8.9074269910
  O        -0.7579770059        5.0673209788        9.1759407766
  O        -0.2969105816        7.8719847483        9.5756037727
  O        10.2449692389        7.2507666462        9.3078706776
  O        11.8841375929       12.0875103779        9.4294145263
  O         5.7136330958        9.4002701380       10.0957800418
  O        12.0940570376        4.6039143431        9.5219292845
  O        12.6248918872        9.0804418868        9.5274149173
  O         4.5279156571        1.7970091652       11.5342719596
  O        -1.5924880707       15.3791775476       11.6960724029
  O         7.3188334464        1.2447058212       11.4406805645
  O        10.0829750397        2.8293645476       12.6089562391
  O         1.6878377602        8.2165201139       11.5619615791
  O         2.2169173693       10.8365288358       11.5037602243
  O         5.4067452034       11.2625224799       12.3179889232
  O         1.8060287277        5.1334256233       12.2098564283
  O         8.9532163355        2.2508464244        9.5786704383
  O         8.6645689980        9.3387202781       10.4694678600
  O        -0.5058010400       12.9957328985       12.0805683601
  O         6.3581950203        5.8166828081       12.5278581412
  O        10.3319545219       13.3480024879       11.9312732499
  O         4.3213480605        4.1429262146       12.9150749443
  O         4.3828563301        8.2718054831       12.6229287505
  O         4.3076082564       13.3786906570       13.5846430616
  O         1.4425393229        2.4096111339       13.7097148534
  O        -2.3221381808        5.3672367357       12.5676177621
  O        11.9209337436        9.4151710099       11.9654912315
  O         9.5119579300       10.7794533347       12.4605500542
  O         0.6104475828        8.3512883720       14.0291151899
  O         8.0863044455        1.8065456968       14.5723654739
  O         2.0155093327       12.1083281893       13.8281734905
  O        -2.7803520823       12.2735545309       13.0730419611
  O         9.0384765265        4.7347000945       11.0891508004
  O         3.8652345939        2.2007210879       15.4799811590
  O         6.7840371975        4.1694262996       14.6017797532
  O         6.1765832368       10.3437627672       14.7414747244
  O        10.6515004797        6.9057031697       12.9708959312
  O        12.3517734152        3.2817465101       13.9030302261
  O         3.2674643169        5.3770479384       15.3519692640
  O         3.9528709022        8.0667960359       15.2964352180
  O         7.3666423323       14.3578820938       16.9749543080
  O        13.0818221917        9.0822948467       14.4252631544
  O        -0.0839077506        2.0512706641       16.1503346371
  O         3.8400016340        3.8138893267       18.0606113627
  O         5.4939928930       12.1782884466       17.0568141675
  O         0.2467272156        5.7438794771       14.6093204559
  O         0.1616417475        5.5435983047       17.5624489429
  O         1.7879749617        9.4010376037       16.3771809559
  O        11.3746308549        7.4577556163       15.6209352156
  O         8.7545468779       10.8209070786       15.3361677527
  O         0.4212227475       12.6089369092       16.2143869656
  O        11.6558266498       13.1536138262       17.9731256536
  O        -1.8632518408       10.7588453121       16.3470585084
  O         1.1513160768        3.3811145766       18.6115933884
  O         5.7171639040        7.4619349443       17.4670771477
  O        12.5697989305        2.3819552082       16.5942340107
  O         6.0220823261       10.1076496319       18.6674791401
  O        11.2081828903       11.9988218350       15.4675084657
  O         9.1973302171        8.5145309300       17.0503843743
  O         8.0594748889        3.4105728376       18.3118677962
  O         2.7088931851       11.7670438286       17.3254069355
  O         6.0294307713        4.3085927207       19.8181446300
  O         7.9364452365        5.8419997543       16.7087270031
  O        11.6528604275        7.3232009263       18.6109840676
  O         1.3807083423        7.2908272236       18.7916987257
  O         3.8275898186        7.2075493347       19.5231869567
  O        13.4382522386        5.4102523111       19.3424714770
  O        -2.2846274184        9.9852834650       18.9240496363
  O         0.1815036261        4.3779669993       21.1929210975
  O         1.7791818995       11.6562471209       19.8924061620
  O         9.0976856827       10.3930222656       19.2457032007
  O        -1.2716053458        2.2631061384       21.8442094963
  O         4.0286388578        9.9904214591       20.2538211102
  O         5.8265810158        3.9767120390       22.8009443510
  O         8.7447368266       13.0545973079       18.9808338559
  O         9.8609284682        3.7290709188       20.4790773151
  O         9.3298927343        6.5373960951       19.7391935201
  O        -0.2123334395        9.1732240652       20.4519782122
  O        11.3295904910       10.8486352701       20.9405776605
  O         6.7780766154        6.8675858929       20.5531480921
  O         5.0745926972       14.6453811475       23.1791570879
  O         1.2934201151        5.7313186284       23.3275061938
  O        12.2003752675        3.2098349093       19.5092672945
  O        14.8592997152       13.6505421196       23.4991574281
  O         8.5148604105        3.9338538846       23.0558242508
  O         8.1635294522       10.1825063539       22.1633760877
  O        14.5212588788        7.3655970787       22.6237882663
  O         2.4100722894       -0.0744718021       23.1281488452
  O         1.5047761337        9.6716043273       23.3863512929
  O        12.4500863285        9.3138588479       23.0241450947
  O        11.2915523109       12.9158127290       23.2573706650
  O        11.5388405566        2.7999092727       22.9765250214
  O         4.0835727313        6.1585062769       22.0659506849
  O         5.5414764447        8.0455689361       23.3126998529
  O         6.9713789384       12.7046122530       23.1922107859
  O         9.2692773123        0.8138130164       21.5316185019
  O        10.0464159362        8.9386811072       23.8787041026
  O         9.5821080054        6.5170763449       22.8516149142
  O         4.7245783997       10.5842355650       22.7435234973
  O        -0.9214792484       10.9076688382       23.7818953368
  H         3.2640805646        2.0833549918        8.2556778227
  H         9.1266778128       11.8594604636        8.1847105791
  H         3.1810129913       11.9834903000        8.7611133055
  H        -0.4676103931        4.9909294214        8.2175899184
  H         9.8858930800        7.0969604161        8.3996665067
  H        -0.0562825287        7.7338897215        8.6015492556
  H         1.0298088550        1.1838530224        8.3280514521
  H         3.2146541879        4.3791024335        8.9977002262
  H         5.2922150872        3.5269462144        8.9766419694
  H         2.7386016761        6.8110526854        9.2537286011
  H         7.4135067932        4.7707828182        9.1876052403
  H        14.8702296769       14.7427466714        8.2345674350
  H         3.4774091497       14.1300038735        9.2451263549
  H         7.1421694803        7.3530381646        9.3542196069
  H         3.8679853730        9.2031320890        9.0902433472
  H         9.0364894882       10.8341346038        9.4241826480
  H        -1.2155645339        8.2053286065        9.6419116091
  H        -3.6903050185       12.2167950400        8.4521634480
  H        11.0638467739        7.7768522298        9.0478155911
  H        -0.7283467048        6.0302627245        9.4302244317
  H         2.7991421114       11.7679709343       10.2575258487
  H        -2.3903602616        5.0103505982        9.0259741279
  H        12.4413670774        9.7541023549        8.7414831274
  H        11.4856721914        5.3869033712        9.4495179953
  H         4.1072789260        1.8382109325       10.6010436590
  H        -1.9307390711       15.7366533411       12.5498929683
  H         0.9220197117        8.0927257893       10.8321273921
  H        10.7702953017        2.9450780320       13.3363418995
  H         6.6267118789        1.8713870008       11.5395667334
  H        10.9628871236       12.0613359356        9.7987207789
  H         4.6690245682       10.6891110836       12.0922288945
  H         9.1773728705        8.5198918645       10.2267229559
  H         7.6714517816        9.2071707062       10.3169719812
  H         7.9207180797        1.7375908006       10.8222496235
  H         4.3872642711        2.6740372357       12.0550192059
  H         1.4971078747        6.0225942257       12.1634796299
  H        12.3880689364        9.4710244555       10.4515780906
  H         7.0153201939        5.8062730948       11.7534921121
  H        -1.1103412313       14.5489575164       11.9761605577
  H         8.6083803915        2.0397251374        8.6886289247
  H         1.9632562368        9.9268753805       11.3603035288
  H         9.3387018602        2.5765400058       13.1526468863
  H         5.0341414445       11.9414764586       12.9088541826
  H         2.7033781735        5.1954145754       12.6760989126
  H         4.1660663536       13.9951260708       12.8348739078
  H         1.8736109800       11.1580698788       12.4362281318
  H         3.6434477197        7.9633041906       12.0131775027
  H         9.9310471753        0.9502034396       12.1737697836
  H        -2.3198350299        5.1261534900       11.5747114320
  H         1.3265520602        8.4053557098       12.5138021651
  H         5.1142512313        7.6154032641       12.4714662277
  H         2.3020652903        2.5088450218       14.1735345448
  H        -1.2659689109       12.6548732758       12.6560743461
  H         1.4489273401        3.2868428014       13.2016803630
  H         4.8627656273        4.8554131777       12.4670754264
  H         9.0916851174       10.2281005432       11.7677805606
  H         9.1655836183        3.1750483045        9.6891665944
  H         9.5893304614       12.6989641332       12.1127096218
  H         0.3207654017       12.7240600877       12.5729664127
  H        -3.2412965633        5.7234851884       12.7120327907
  H         6.7590648884        5.1025299693       13.2390885772
  H         7.5088924527        1.1948215251       14.1924328763
  H         4.3092531545        4.4778132901       13.8595498234
  H        11.1414940040       10.0050741684       12.0182913382
  H         4.3926303538       13.9789688247       14.3924647448
  H        11.7886766314       12.7200049393       12.5252174711
  H         0.5971795287        7.4226001584       14.3076537203
  H         6.0453269372       10.5181607261       13.7821068659
  H        11.1849760657        7.7210206443       12.7635101762
  H        12.5695297999        9.5671184080       12.7224109204
  H         2.7659176651       12.6263781489       13.5574325834
  H         9.2225591771       10.4519960696       13.3249940634
  H         2.3545822347        5.1425599754       15.0437805340
  H        -3.1478240486       12.3663763829       13.9911635838
  H        12.6808751337        4.1088953104       13.4255182294
  H         4.0199578360        8.2045223802       14.2650530331
  H         9.3495415773        4.0003091444       11.6685433377
  H         7.2812627105        4.6041057981       15.3654218854
  H         4.4795491483        2.9741599229       15.4460630526
  H         7.9146222266        1.5586000383       15.4882392166
  H         0.9706840820        8.9144683360       14.7828036297
  H         9.3441607384        5.5184696823       11.5255305436
  H        12.5967669506        3.2947958543       14.8492756227
  H         0.2578537741        2.3010518538       15.2595784836
  H         7.2728112481        3.3053815193       14.5447673386
  H         5.4989618367        9.6807123933       15.0249228871
  H         1.4236913720       12.5151459440       14.4812859856
  H         3.3171998919        6.2943638489       15.2403448995
  H         3.4984312583        2.1931607736       16.3669512718
  H         5.5800885952       11.7264138569       16.1826736364
  H        10.5108951766        6.9624209286       13.8935195669
  H        -1.3993375282        8.5390040455       14.3539105069
  H         3.2235787306        8.6592055566       15.5664143080
  H         3.7274539387        4.4187719451       17.2570265208
  H         7.7906933496       10.6188887802       15.1912344418
  H         6.7208102005       13.5955138921       16.9816959525
  H        -0.1119159594       11.8123399599       16.0488473318
  H         7.9948682480       13.9972527969       17.7356399591
  H        14.7120143425        5.4498594670       14.2731098613
  H        -2.0133220298        9.6983957791       15.1009358898
  H        12.1110903662        8.1093702893       15.3919403157
  H         0.5540034313        6.3792646380       17.9165308943
  H        -0.0643657153        1.0098868372       16.1181431120
  H         0.1803067113        5.7404661489       15.6286103697
  H         5.9226025510       11.5756652541       17.7487963236
  H         1.7487253000        8.6957416606       17.0984159755
  H         0.6026141768        2.7762318825       18.0307230489
  H         2.9333902117        3.6663736328       18.3643960443
  H         5.1182614674        7.6117016606       16.7281389773
  H        13.6097733847        2.3674760345       16.3449851747
  H        11.9502054824       13.9550263835       17.6070891548
  H         9.1019088166       10.0308331951       15.9343271197
  H         0.8224764983        4.2964313035       18.2927678720
  H         2.0400529933       10.2506229475       16.7785455949
  H         9.9475167888        8.2612781365       16.3533596263
  H        12.5761500217       11.1332752566       16.0984357482
  H        -0.6948681746        5.4404471264       18.0597770909
  H         1.3477541725       12.3496162539       16.4530110765
  H        10.8576582351        0.1212985136       18.5074835539
  H        11.5590979923        7.0303896009       16.4574847220
  H         3.6247437161       12.0889013008       17.2914485292
  H         6.9313796580       10.0946001023       19.0899976269
  H        11.1354414504       12.7158437342       16.1977812718
  H         5.1864355563        4.1927377505       19.3935618944
  H        10.2881124011       11.6850835535       15.3628266060
  H         7.6556267536        2.6640694142       17.7401113997
  H         6.0642501917        8.2750432155       17.8803922128
  H        -1.7809107268       10.7157491393       17.3684394959
  H         7.1221593596        6.2390446457       17.1624980085
  H         8.6537513079        7.6943968147       16.9673233973
  H         6.6981066894        3.8400302607       19.1873027020
  H        12.5303130200        2.7813764488       17.4769943333
  H         8.2807428600        5.4334233388       17.5941549938
  H         5.3179903846       10.1372324733       19.3604155425
  H         4.6165246924        7.2478972962       18.8963090462
  H         0.7134350764        4.0423079016       20.3854439796
  H         2.3885631955       11.7401495321       18.2214377085
  H        12.2415357492        6.6736151366       19.0631763129
  H         3.9734707139        6.6302882891       20.3459200368
  H         2.3320486095        7.3325052642       19.0863087116
  H         8.7270235486        3.0528854226       18.9631232695
  H        12.5202834510        9.2337931902       18.5759834765
  H        -1.3982671005        5.3723424841       20.2111421895
  H         9.3109028972        9.5008887069       18.7528400761
  H        10.8464168248        7.2109586109       19.1000731512
  H         0.9548547971        8.0629810669       19.2408909240
  H         5.2192952612        4.7029482837       22.9725890581
  H        -2.0845300992       15.9395999048       22.2396375855
  H         3.8071677821        9.0048676070       20.2780450133
  H        -1.6611727734        9.6763407881       19.6225875800
  H        -0.7367528616        3.0650752236       21.6772168157
  H         2.5521178793       11.0536663016       19.9315155417
  H        12.8132063313        4.6242918495       19.4237929010
  H         0.9315246047        4.6377062650       21.7319041506
  H         6.1806118681        6.0756478323       20.5510921623
  H         8.7601821857       -1.2622829099       19.0128828308
  H         1.8924539846       12.2915212655       20.6045459858
  H        12.0871612299       10.8892520613       20.2785264149
  H         5.8723941342        3.9105728312       21.7717296367
  H         9.9781624254       10.6374700506       19.7528525496
  H         8.3281391836        6.5229357751       19.7035949006
  H         6.7387832946        7.2517633629       21.4258084094
  H         9.9236775844        4.7213813513       20.2929422665
  H         5.2746324693        2.3182568613       23.0464369404
  H         9.3902541065        3.7339622204       21.3685218643
  H        11.3561406197       11.5608123558       21.5771129881
  H        -0.6389968174       14.0927908130       22.6738508588
  H         4.1838482644       10.2107504299       21.2281600252
  H        11.2594601235        3.3144225607       19.8802263185
  H         7.5241944354        3.8194291409       22.9666686952
  H        -0.2592893803        8.6861159456       21.2909823508
  H         8.2739909225       10.3951863705       21.2142641827
  H         8.8061297253       13.2992878827       19.9501079265
  H         0.5525089911        9.8087476873       20.5671819979
  H         9.4443069158        6.8526290181       20.6676737597
  H         1.5810375456        0.4087318739       23.3871822053
  H         4.1016124094        1.2270635640       23.1388343861
  H         7.7752218279       10.9764720819       22.4743054724
  H         1.6198912078        6.6408096127       23.6501926215
  H         1.4801077822        5.1790420795       24.0724317812
  H        12.7628424595        2.6583669694       20.1721108151
  H        14.4814183573       14.3222345275       24.0245118434
  H        12.0333779554        9.6061509115       22.1488915204
  H        13.7022117683        7.8063253349       23.0224719763
  H         5.2876799659        8.9819553335       23.0249742116
  H         8.6625196335        3.5078567425       23.8934467223
  H         6.3310160303       13.4539652688       23.0880125251
  H        14.7630689075        6.6066417338       23.1568173094
  H        11.3184236773       12.4863111456       24.1128840395
  H         1.8471381782        9.2430406157       24.2404866729
  H        10.7025794009       15.9763259799       22.4584019528
  H         0.5946440080       10.0579587799       23.5224028468
  H         4.6716320418        6.8992393612       22.5338247918
  H        11.6118442471        9.1952949608       23.5668172809
  H         9.3322831135        9.3625053997       23.2954903787
  H         2.3485958996       -0.9223611337       23.5713072033
  H         8.5021885713        1.1202251532       22.1318943887
  H         9.1786279756        5.6761204995       23.0045921010
  H        10.4330222785        6.3272940157       23.3352474600
  H         5.3229616821       11.2201945855       23.1808986077
  H         3.9067760430       10.5861034494       23.3238159082
  H         9.6265427736        8.0091115596       24.0873187563
  H        13.5326411241       10.5351505444       23.6074715509
  H        11.6382529420       13.8536607627       23.3187232575
  H        11.3177454274        2.9858525639       23.8919225499
  H         7.3440213339       12.7768946396       24.0916435349
  H         6.0266942118        8.1171688463       24.1828826984
  H        -0.9249333852       11.8697720751       23.5805721806
  H         3.1652445830        6.3830318506       22.2062456928
  H         9.8276474769        0.4615991478       22.2694047698
  C         4.0071928645        5.1827600424        9.1348861152
  C         5.2589625074        4.6089426867        8.9824820880
  C         3.7981900580        6.4959333195        9.1620558845
  C         6.4628753782        5.3166944398        9.0512272606
  C         6.2812243490        6.6824232140        9.2410405533
  C         5.0132663274        7.3077010893        9.2129076213
  C         4.8644885791        8.7479165995        9.4873352626
  K        11.7846856637        1.7058765812        9.7891285349
  K         0.9126625312        2.9446108825       10.6224573881
  K        -0.3992811571       11.5958993590        9.5747716733
  K         6.4086749238       12.5037789943        9.9476444140
