      468
2999
 Cu         0.0000000000        0.0000000000        0.0000000000
 Cu         0.0000000000        4.4270557290        0.0000000000
 Cu         0.0000000000        8.8542442710        0.0000000000
 Cu         1.2779405470        2.2135942710        0.0000000000
 Cu         1.2779405470        6.6406500000        0.0000000000
 Cu         1.2779405470       11.0677057290        0.0000000000
 Cu         2.5560344530        0.0000000000        0.0000000000
 Cu         2.5560344530        4.4270557290        0.0000000000
 Cu         2.5560344530        8.8542442710        0.0000000000
 Cu         3.8339750000        2.2135942710        0.0000000000
 Cu         3.8339750000        6.6406500000        0.0000000000
 Cu         3.8339750000       11.0677057290        0.0000000000
 Cu         5.1119155470        0.0000000000        0.0000000000
 Cu         5.1119155470        4.4270557290        0.0000000000
 Cu         5.1119155470        8.8542442710        0.0000000000
 Cu         6.3900094530        2.2135942710        0.0000000000
 Cu         6.3900094530        6.6406500000        0.0000000000
 Cu         6.3900094530       11.0677057290        0.0000000000
 Cu         7.6679500000        0.0000000000        0.0000000000
 Cu         7.6679500000        4.4270557290        0.0000000000
 Cu         7.6679500000        8.8542442710        0.0000000000
 Cu         8.9458905470        2.2135942710        0.0000000000
 Cu         8.9458905470        6.6406500000        0.0000000000
 Cu         8.9458905470       11.0677057290        0.0000000000
 Cu        10.2239844530        0.0000000000        0.0000000000
 Cu        10.2239844530        4.4270557290        0.0000000000
 Cu        10.2239844530        8.8542442710        0.0000000000
 Cu        11.5019250000        2.2135942710        0.0000000000
 Cu        11.5019250000        6.6406500000        0.0000000000
 Cu        11.5019250000       11.0677057290        0.0000000000
 Cu        12.7798655470        0.0000000000        0.0000000000
 Cu        12.7798655470        4.4270557290        0.0000000000
 Cu        12.7798655470        8.8542442710        0.0000000000
 Cu        14.0579594530        2.2135942710        0.0000000000
 Cu        14.0579594530        6.6406500000        0.0000000000
 Cu        14.0579594530       11.0677057290        0.0000000000
 Cu         0.0000000000        2.9513704860        2.0869457760
 Cu         0.0000000000        7.3785590280        2.0869457760
 Cu         0.0000000000       11.8056147570        2.0869457760
 Cu         1.2779405470        0.7379090280        2.0869457760
 Cu         1.2779405470        5.1649647570        2.0869457760
 Cu         1.2779405470        9.5920204860        2.0869457760
 Cu         2.5560344530        2.9513704860        2.0869457760
 Cu         2.5560344530        7.3785590280        2.0869457760
 Cu         2.5560344530       11.8056147570        2.0869457760
 Cu         3.8339750000        0.7379090280        2.0869457760
 Cu         3.8339750000        5.1649647570        2.0869457760
 Cu         3.8339750000        9.5920204860        2.0869457760
 Cu         5.1119155470        2.9513704860        2.0869457760
 Cu         5.1119155470        7.3785590280        2.0869457760
 Cu         5.1119155470       11.8056147570        2.0869457760
 Cu         6.3900094530        0.7379090280        2.0869457760
 Cu         6.3900094530        5.1649647570        2.0869457760
 Cu         6.3900094530        9.5920204860        2.0869457760
 Cu         7.6679500000        2.9513704860        2.0869457760
 Cu         7.6679500000        7.3785590280        2.0869457760
 Cu         7.6679500000       11.8056147570        2.0869457760
 Cu         8.9458905470        0.7379090280        2.0869457760
 Cu         8.9458905470        5.1649647570        2.0869457760
 Cu         8.9458905470        9.5920204860        2.0869457760
 Cu        10.2239844530        2.9513704860        2.0869457760
 Cu        10.2239844530        7.3785590280        2.0869457760
 Cu        10.2239844530       11.8056147570        2.0869457760
 Cu        11.5019250000        0.7379090280        2.0869457760
 Cu        11.5019250000        5.1649647570        2.0869457760
 Cu        11.5019250000        9.5920204860        2.0869457760
 Cu        12.7798655470        2.9513704860        2.0869457760
 Cu        12.7798655470        7.3785590280        2.0869457760
 Cu        12.7798655470       11.8056147570        2.0869457760
 Cu        14.0579594530        0.7379090280        2.0869457760
 Cu        14.0579594530        5.1649647570        2.0869457760
 Cu        14.0579594530        9.5920204860        2.0869457760
 Cu         5.0681717630        1.5216830077        4.1402395370
 Cu         3.9495493126        3.8193572159        4.1525953582
 Cu         6.4575625080       12.5575645706        4.1231219867
 Cu         2.5949361338        5.9795620925        4.2733717261
 Cu         3.8069922693       12.6104466957        4.1792588214
 Cu        11.5299062439        3.7432792941        4.1197535049
 Cu         2.5683595647       10.3723901380        4.0799222723
 Cu         1.2708260327       12.6162605538        4.0844289951
 Cu         5.0387416879       10.3583276995        4.0968696573
 Cu        12.7818673746        5.9370646339        4.1442556021
 Cu        10.2390716329        1.6006189212        4.0908808616
 Cu         2.5796485603        1.6029747090        4.0925124760
 Cu        13.9850472580        8.1205436841        4.1510098549
 Cu        12.7275282243       10.4304640192        4.1218759069
 Cu         7.6976389126       10.3317116142        4.1458593110
 Cu         3.7534414456        8.1274301276        4.2328909500
 Cu        12.8463774808        1.5231955874        4.1543303576
 Cu         7.6525606217        1.5426475694        4.0971759189
 Cu         9.0484729665        8.1472201436        4.0936072830
 Cu        11.4368992107       12.6645901232        4.1729510746
 Cu         9.0118180382       12.6011823996        4.1714553244
 Cu         0.0545042397        5.8575223694        4.1495234382
 Cu        11.4666206087        8.2400268405        4.1311372371
 Cu         6.4300834935        8.2040306612        4.1535902655
 Cu         6.4024099756        3.7928258661        4.1692178857
 Cu         1.1954022738        8.0093759130        4.1215567094
 Cu        10.2392877448       10.4334466753        4.1120522154
 Cu         5.1304939963        5.9981207758        4.2057048958
 Cu        10.2531229320        5.9649468909        4.1166135698
 Cu        14.0526504372        3.7212628587        4.1774861762
 Cu        14.0540599065       12.6167199080        4.1159307145
 Cu        -0.0405977043        1.5368283380        4.1225877474
 Cu         1.3610721990        3.6623609942        4.1322274037
 Cu        -0.0850405534       10.2516635403        4.0899528023
 Cu         8.9821186474        3.8082723212        4.1315210685
 Cu         7.6982578941        6.0018377313        4.0690391018
 Cu         3.9012249393        2.2166223533        6.2016694147
 Cu         5.1232272627        0.0350424939        6.2247409992
 Cu        12.7410923407        8.8919765535        6.2408668300
 Cu         5.0902553017        4.5035290440        6.2400278637
 Cu        11.4302501749        2.2667184270        6.1573720046
 Cu         9.0342281259        6.6590475113        6.3212177605
 Cu         3.7446621231       11.0538723547        6.2530033965
 Cu        12.7959243450        4.4094626548        6.3071520839
 Cu         6.3940614040       11.1481063335        6.2171869773
 Cu         2.5145862288        8.7847555829        6.2268060667
 Cu         1.2562726910       11.0749179435        6.0817210005
 Cu         7.7285023185        0.1559413262        6.1535211496
 Cu         6.3995148114        6.8036126826        6.1936110946
 Cu         6.3714385718        2.3589675488        6.1684709480
 Cu         3.8379562636        6.6660232633        6.3856711602
 Cu         2.5488408570        4.4198001961        6.2581095607
 Cu        -0.0037043881        0.0366155714        6.2266039148
 Cu        11.4202355456       11.1746720923        6.2002386465
 Cu        10.1899411062        4.4930124289        6.2264696704
 Cu         7.6994938164        8.9549827720        6.3314090244
 Cu         2.5537345829        0.0280356051        6.0854111081
 Cu         5.1520135643        8.9583262129        6.1668590980
 Cu         1.2245683748        6.6446544284        6.3183468694
 Cu         8.8798625232        2.4482323289        6.2942531265
 Cu        12.7210180756       -0.0227138014        6.2555487788
 Cu        14.0556224430        6.6792705797        6.2473528723
 Cu        10.2222532307        0.1552186371        6.2446378934
 Cu        10.1965773897        8.8838088254        6.2363739377
 Cu         8.9553532377       11.1573398845        6.2314654081
 Cu        11.4939792121        6.7201884385        6.1158069537
 Cu        14.0363597771        2.2257257700        6.2669704031
 Cu         7.6666975392        4.5213802033        6.2215034075
 Cu        -0.0934429927        8.8729579788        6.1796460668
 Cu         1.3419797171        2.2370743330        6.2061911199
 Cu        14.0450601951       11.0273649670        6.3640319232
 Cu         0.0667854022        4.4195640173        6.1892047488
  O         4.7207259036       14.3687411928        9.5588370664
  O         1.6227444512       10.6988002575        9.2192768740
  O         9.1860608224       13.0194036298        9.6354963428
  O         2.1604349489        0.0481765029        9.2096430633
  O        -1.9491815770        3.6767233867       10.0698380467
  O         1.0630385458        6.6233055314       10.2248926312
  O        11.3670843189        5.4468596695        9.3660017866
  O        12.3997284578       11.6025249625        9.6933756068
  O         4.1884268302        9.6990870487        9.6378166326
  O        13.3284878611        6.2629568781       12.0722227409
  O        13.9132693150        7.7696508776        9.9201840738
  O         5.5952797304        1.9704521607       11.8207797475
  O        -1.1991603743       13.7290736185       12.0005314592
  O         8.2857941305        2.2859235353       11.7294985053
  O        11.0700187594        2.9503993397       14.9272255610
  O         0.8485184752        7.9065463350       12.5064941148
  O         1.6620393049       10.4570871979       13.0788802481
  O         4.4861359242       11.0984634801       12.5368104010
  O         0.5904637969        3.9601439070        9.3597920516
  O         9.8212151505        3.1008407430        9.4634765696
  O         9.9345985846       10.2780725439        9.3744021898
  O        -1.9089028089       11.4466104067       13.0674158384
  O         5.0204606700        6.4937596594       13.1119764301
  O        10.8466772427       14.4041505947       12.6918747942
  O         3.4804216430        3.9986805960       12.7073706325
  O         6.4579057915        9.2134915074       12.9913153294
  O         4.4742551647       13.7402863918       13.6585422908
  O         0.1848076145        3.4620359805       13.2879692448
  O        -1.2213411297        6.6336922127       15.1348303184
  O        11.2619204535        9.0075834272       12.6199792955
  O         8.1854460473       10.4256352875       11.2030531965
  O         3.3901850072        9.0134928296       15.5904851541
  O         8.5240473284        2.5506838420       16.5592606374
  O         1.9634234415       13.2289912750       13.2304714805
  O        -5.3893011221       11.7608309136       13.0488019309
  O         9.3466252730        4.2958601269       13.1440186306
  O         6.2546895612        3.9182009194       16.2634711951
  O         7.1598298520        5.8421038338       14.2751141808
  O         7.9359870693       13.3306214431       15.0071432741
  O        10.2074335240        6.4556680306       11.8483638530
  O        13.4964394013        3.9348592259       15.0495574857
  O         4.5933804475        6.3588866247       16.9683748991
  O         5.7769575409       10.0623612818       15.7365238155
  O         6.3024275180       19.0644828110       18.9352667330
  O        14.4990627776       11.2210044736       15.6226750206
  O        -0.8859159512        3.0396047165       17.4828877939
  O         2.8140674334        4.2175527316       15.5901645326
  O         5.3179584635       13.0134083918       16.2148078704
  O         1.8941295070        6.6761876411       14.8648548171
  O        -0.0306103281        6.8173968450       17.8566074618
  O         1.8721728858       11.0722791171       16.5619637207
  O        13.1193725724        9.0010763781       15.9987086314
  O         9.8912784550       11.9848595686       16.1320290390
  O         0.8787112236       15.0248399732       15.2007382642
  O         9.4553569120       16.6190840109       18.8449430642
  O        -1.5443449459       13.3701109780       17.1591624453
  O         1.2080889091        4.5887694608       17.8897202174
  O         6.1737731716        9.1983641438       18.2188015249
  O        12.4838563405        3.8447445687       19.2697454512
  O         5.9885086190       13.6780744633       18.5914263269
  O        11.9742641255       13.5785708115       15.2767430471
  O        10.7158113149        9.4543244117       15.2325027558
  O         8.6851445494        6.1328726436       18.1360658286
  O         2.5491622551       13.6122588466       17.1039161969
  O         3.8260996450        6.4847165115       21.3237834721
  O         8.0447857008        7.7454938701       16.1007507150
  O        10.7791701826       10.0453805395       20.3125330808
  O         1.2829529586        9.0794373290       18.3874849803
  O         3.9025196251        8.6023898777       19.4057031351
  O        12.9317625650        9.4763618913       18.8317695844
  O        -3.0747952542       12.8057956270       19.9284644709
  O         2.1053688076        4.5570338582       20.5676885939
  O         2.5824264465       13.7290794442       19.7226145177
  O         8.9362339781       13.0232347259       18.4864801828
  O         0.8506859887        4.4426403932       23.1733724935
  O         4.9551780763       12.3187987336       20.6144380552
  O         2.4789567271        7.9211345354       23.0972641479
  O         6.2930026818       16.3674323130       19.3013814763
  O        10.9278993252        7.2505489999       19.7842406948
  O         8.0889429082       10.3882861368       19.7930984167
  O         0.2513080083       12.6564685327       20.9402823943
  O        10.0831568703       14.5033159931       20.4617065828
  O         7.9178298249       10.6129772595       22.6097309762
  O         5.2675820055       17.0705270090       22.8235044844
  O        -0.1117958990        8.5565057203       22.9526805909
  O        13.3998124652        6.4263209326       20.0863384968
  O        12.4973776497       16.3847970026       21.8560143164
  O         6.8195491687        6.3200871338       22.2448962888
  O         9.7240394076       13.0686256189       23.0793682223
  O        15.0508541572       10.0336223478       20.3388892785
  O         3.2279201069        2.3509159417       21.3565489576
  O         1.0947663991       15.1006244163       23.3124636773
  O        17.4594139656       11.5913578442       22.9137595215
  O         9.5795709417       19.6799307326       22.1010615578
  O        13.7822684523        5.5517511459       22.8017221443
  O         3.7518037377       10.1515546554       21.5064624032
  O         5.6323906732        8.6373609463       22.8992747466
  O         7.4650786286       15.8596800602       22.1019905490
  O         9.9815984137        3.5579850624       22.7823598668
  O        12.3292672664       12.4702396249       23.0743871048
  O        10.2495674157        8.8931840348       23.0767498733
  O         6.4483763703       13.2789912879       23.0756246425
  O        -1.2038601289       14.3568760766       22.2023449439
  H         4.7998457919        1.5054469113        8.6767068293
  H         9.0570838152       13.0726116040        8.6568140738
  H         1.5369176671       10.4256516571        8.2583798003
  H        -1.0138863300        3.6264772892        9.6970122109
  H        10.7406788343        4.6772775258        9.3578607703
  H         0.3115826629        7.0678868175        9.7237718535
  H         2.1138730494       -0.0414161170        8.2081118234
  H         4.5144229252        4.0471079704        9.5392474564
  H         6.9946062626        4.2663471912       10.0025092590
  H         3.1821334176        6.0567381152        9.3083582793
  H         8.1578583602        6.5381091383        9.8559012274
  H        17.0512158057       12.4659879156        9.4042600135
  H         3.8265606921       13.9106558862        9.5001125944
  H         6.7056730016        8.5190520842        9.9174898420
  H         2.9073549630        8.3024823646        9.1232701404
  H         9.7174371869       12.1955435136        9.5956920309
  H         1.2166284804        7.0735161385       11.1247259178
  H        -2.6529036704       11.5790644123        8.7439698370
  H        11.1790893214        5.7753475182        8.4645903243
  H        -2.5016293727        4.2113740170        9.4841398776
  H         2.5671759268       10.3751732951        9.4643767576
  H        -2.9543599571        6.1679137043       12.3033743217
  H        13.2888586618        7.3375374998        9.3157757755
  H        13.5691281069        5.3748707624       11.7392122235
  H         5.4202880670        1.7955951114       10.8621878239
  H        -0.9324560584       14.3809935145       12.5899921695
  H         1.2463138280        8.7398609050       12.3080047787
  H        11.9270315643        3.4743964843       15.0691313501
  H         7.2968937265        2.2071148157       11.7868230886
  H        11.5600859839       10.9764586947        9.4121049246
  H         3.5192591522       10.9530223242       12.5616058224
  H         9.7091703736        9.6671810785        8.6148494374
  H         9.2491112705       10.0962149698       10.0819285476
  H         8.5646671823        3.1514054995       12.1669162565
  H         5.0708441994        2.8082646265       12.0410846331
  H         0.7249569391        4.9172997239        9.4837049090
  H        13.6143371291        7.3700755226       10.8230905538
  H         5.3610868814        6.8099685424       12.2294366486
  H        -1.4974739650       12.9086630836       12.5046444925
  H         9.4885340794        3.3545511308        8.6041448992
  H         1.8191871327       10.1155635724       14.0018903326
  H        10.4192478725        3.1503273589       15.6602898799
  H         4.5718901321       12.0789279155       12.7128889226
  H         0.7577190529        3.9063186158        8.3666183568
  H         5.1129742630       14.3143394632       13.0845353164
  H         1.7308043140       11.4706360862       13.2127348831
  H         5.8187730283        9.9370854990       12.8609712800
  H        11.0923306688        1.7315571356       13.4142741059
  H        -1.3433349334        7.0018612025       14.2110176908
  H         1.2259182893        7.4525420593       13.2205050404
  H         6.0763581536        8.4342917626       13.2857138548
  H         0.5413696985        4.3604480070       13.0603912819
  H        -2.8619868775       11.4336852059       12.9522802753
  H        -0.7300269631        3.7122208729       13.5832640092
  H         3.9300688018        4.9277096092       12.8511707452
  H         7.7638614569        9.8294952744       11.8251255504
  H         9.1425874854        2.7156625528       10.0479082311
  H         9.9540823180       14.6401612058       12.3527671790
  H        -1.7580616001       11.2738890803       13.9949581999
  H        -1.5933488550        7.4085919001       15.6391880023
  H         5.8571822256        6.3189762519       13.6316332668
  H         8.4777103154        1.7057667134       16.0402606360
  H         3.0548350125        3.7940206932       13.5614978701
  H        11.0397009512        9.8255900038       12.1291947833
  H         5.0099515582       13.4463153643       14.3994586629
  H        10.2820149738       12.6558536203       13.2360866067
  H         2.8986821974        8.2223147855       15.2589250312
  H         7.0675392854       13.2926355453       15.4902872952
  H        10.4737061344        6.3558211625       10.8716408849
  H        10.8941331372        9.2165817311       13.5474709585
  H         2.9333183443       13.5264408914       13.4938363396
  H         8.7714600711       11.1089686054       11.6930459586
  H         5.0100526184        6.3767209371       17.8114655641
  H        -5.5831757911       11.3638047227       13.9408215286
  H        13.4549375331        4.9248162911       15.1518444618
  H         5.0026733146        9.6831549106       15.3465134523
  H        10.0902829840        3.8377778178       13.6754002727
  H         7.5040069183        6.5601883562       14.8512095935
  H         6.1820973027        4.7480748353       15.7126682315
  H         7.7399645883        3.0453535671       16.2220160468
  H         2.7522616080        9.5460943259       16.1284451672
  H         9.6596953359        5.0468177809       12.6179957996
  H        14.0194488707        3.6591052515       15.8384805964
  H        -1.5370787869        3.3433138099       18.1272569741
  H         7.9481692135        5.3397866994       13.9512213604
  H         8.5500455534       12.7283791865       15.5461914269
  H         1.5116930392       13.6056901385       14.0609526475
  H         4.4395332732        7.3298360996       16.8680419816
  H         5.7977830091        4.1520544964       17.0811041422
  H         5.6067560740       13.1543493482       17.1605160335
  H        10.4216931642        7.3892122331       12.0979754418
  H         0.0372680242       10.7916200927       15.9098957242
  H         6.4373968491        9.9294675372       15.0556296941
  H         3.7097009541        4.3049958513       15.9685321628
  H         9.7208201067       12.2006351871       17.1033446956
  H         6.3907732689       18.0499407206       19.0114244253
  H         1.2337372456       15.9192706505       15.0250609286
  H         6.1824953668       19.2869464695       19.9181840746
  H        16.3627940842        6.5297483899       15.3159944151
  H        -1.0562926167       11.9804428348       16.2763437442
  H        13.7766528395        9.6933788353       15.7210213946
  H         0.5085801387        7.6942065162       17.9424956527
  H        -0.9388788256        2.0607541583       17.3092142448
  H         2.2649995824        5.8408808448       14.8856535423
  H         5.2321169714       12.0480238582       16.2688014605
  H         1.5275510955       10.7627618772       17.4338772083
  H         0.5085636302        3.9527293551       17.7338632080
  H         2.1976328079        4.2404029755       16.3570230600
  H         5.9907484837        9.7374321585       17.3389790454
  H        11.4848769033        3.8372954277       19.1670922799
  H         9.1160155018       17.5364933482       18.8359428373
  H        10.0958544607       11.0273070462       15.9625523406
  H         0.7598733342        5.5220607189       17.7678955331
  H         2.1668014354       11.9527014994       16.8375219580
  H        11.7018974266        9.2600114775       15.5361170410
  H        13.1343237842       13.4778887971       16.4418683005
  H        -0.7536003653        6.8157535731       18.5441437996
  H         1.4780455462       14.6585508508       15.9747381402
  H         9.0283596356        2.9287869824       18.0588101512
  H        13.0381497122        9.1628699165       16.9885297391
  H         3.4389294369       13.5949116011       16.6868668293
  H         6.7858919221       13.1344248000       18.3915006905
  H        11.6303879007       14.5151929967       15.2325213790
  H         3.3013399771        6.9689710514       22.0590594927
  H        11.2538491628       13.0297836339       15.5679443770
  H         7.8203168711        6.0951190207       18.5589790534
  H         5.3695311717        9.0377220591       18.6772831290
  H        -1.9764784555       13.1400445393       17.9604061092
  H         7.5469284378        8.4933852734       16.4516795742
  H         9.9780529679        8.7533757889       15.5343558286
  H         4.2940362095        5.7784705550       21.8019273761
  H        12.7852405513        4.7838042462       19.4999584740
  H         8.3049570685        7.2287692290       16.9299521848
  H         5.4847507361       13.1225109608       19.3200673570
  H         3.8597815331        7.7098486051       19.8040889494
  H         1.9789547905        4.3737986413       19.6274618850
  H         2.5982857577       13.8576359036       18.0628243874
  H        10.9499174050        9.8166822633       21.2679101132
  H         3.7106224394        9.2695798351       20.1528490280
  H         2.1580577666        9.0008701982       18.7901269245
  H         9.3238287839        6.5802481609       18.7455765037
  H        11.8754878444       11.9280201396       20.1472036123
  H        -3.2609364756        9.5395992134       19.1860597565
  H         8.7601799068       12.3291512350       19.1228419429
  H         9.7413750306       10.2399049209       20.2080460884
  H         0.6745291124        9.4065313387       19.1575823444
  H         1.5154912907        7.9289670447       22.8952988594
  H         1.0463461085       16.7477204808       23.2494101713
  H         4.4335162009       11.5284474369       20.9867488833
  H        -2.8020462978       13.2063035228       20.7214607264
  H         1.1399679040        4.7325329120       22.2430562711
  H         3.1560252853       12.9031218507       19.8131699547
  H        13.5853167287        9.6278912537       19.6116494583
  H         2.7443890485        5.2561048058       20.7181690538
  H         7.0893711902       10.0722784221       22.7202157754
  H         6.6457592348        2.8509499905       20.2068566149
  H         3.0194449582       14.4078842789       20.3578785428
  H        10.9746006902       14.2319814053       20.0951153053
  H         2.5193760278        7.4785835972       23.9435116313
  H         9.4853790335       13.5857958724       19.1194365974
  H         7.6455711890       10.4079718987       20.6721062744
  H         7.7289471286       11.5426056540       22.9050279521
  H        10.8990414468        8.2319245463       19.8111079285
  H         5.2619189928        3.8006635345       23.8567994360
  H        10.3288187989        6.9390605642       20.5365945314
  H         9.8176319093       15.3278797577       20.0361269207
  H        -2.7067937269       16.6336599271       20.8675308621
  H         5.4551885550       12.6966435833       21.3633471208
  H        12.5580231160        6.9429122895       19.9373428837
  H         6.8826271442        5.3490014733       22.2100043719
  H        -0.2384250012       13.4384962389       21.2867616478
  H         9.5075051808       13.6876300608       22.3648486122
  H         6.1560370206       15.4584179084       18.9725718941
  H         0.8310727843       12.9573547400       20.2373420385
  H         7.3509914119       10.0263976711       19.1157021898
  H         2.8769884612        3.2472908323       20.9863960022
  H         4.4918484510        3.2652494405       22.5857958294
  H         9.1107709590       13.3220398625       23.8035419681
  H        -0.6651061109        7.7679542442       22.7835994117
  H        -0.5524262389        9.0331185468       23.6796235251
  H        13.4436970547        6.2963372994       21.0621082029
  H        12.9263073928       17.0254870107       22.4495109592
  H        16.9098922230       12.2640209176       22.4569455006
  H        15.0150612570       11.0100343928       20.5546327650
  H         5.7458440538        8.3667263201       23.8458399538
  H         7.7965839775        6.5118396623       22.2312036716
  H         6.6928447698       16.2942727992       22.6346624965
  H        14.9003983614        9.5596928937       21.1933204230
  H         9.7131671359       18.7446048861       22.3257176042
  H         0.1685770676       14.8427399765       23.0941677625
  H        13.4599494361       19.0879073278       23.7023082252
  H         1.2596708301       14.7488076993       24.2113515351
  H         4.2205563340        9.4666064485       22.1059820105
  H        17.9960045683       12.1207491454       23.6228321621
  H        11.4039773222       12.7400759440       23.3553272463
  H         2.5056798325        2.1402275239       22.0214822479
  H        10.2638000813        3.5770496601       23.6941882753
  H        10.8034157487        9.1168892418       23.8533834742
  H         9.6081297479        9.6342341142       22.9917820565
  H         6.9336118776       14.0544831830       22.7646912468
  H         6.2119253309       13.5226503072       23.9748581591
  H        12.5966845751       11.7805854865       23.7030331307
  H        13.4339404215       15.0213755499       22.0362549728
  H         9.8790263484       20.1752782489       22.8367553403
  H        14.6590953048        5.0920710332       23.0153602439
  H         8.3049073794       16.1120405962       22.5698459435
  H         5.7493750077        7.8284360854       22.4378450502
  H        -1.7115245162       13.7313998784       22.7578180858
  H         2.9610090241       10.3979700306       22.0782486725
  H        10.8968931969        3.2933228208       22.4108789964
  C         5.0090168605        4.9467618578        9.5856188307
  C         6.3864715991        5.1020587931        9.7516484824
  C         4.2777662744        6.1080653831        9.4905875440
  C         7.1006915101        6.3730471023        9.8415039803
  C         6.2797037183        7.4995979135        9.8386084060
  C         4.8330710494        7.3818172452        9.6082708842
  C         3.9304485765        8.5091466110        9.3530365364
  K        11.9062341355        1.2674450460       10.2109958084
  K         1.2516813242        1.7908466936       11.2646919438
  K        -0.5403878375       10.1664392630       10.8745875209
  K         6.4164795527       11.8009411124        9.6626088712
