      468
1999
 Cu         0.0000000000        0.0000000000        0.0000000000
 Cu         0.0000000000        4.4270557290        0.0000000000
 Cu         0.0000000000        8.8542442710        0.0000000000
 Cu         1.2779405470        2.2135942710        0.0000000000
 Cu         1.2779405470        6.6406500000        0.0000000000
 Cu         1.2779405470       11.0677057290        0.0000000000
 Cu         2.5560344530        0.0000000000        0.0000000000
 Cu         2.5560344530        4.4270557290        0.0000000000
 Cu         2.5560344530        8.8542442710        0.0000000000
 Cu         3.8339750000        2.2135942710        0.0000000000
 Cu         3.8339750000        6.6406500000        0.0000000000
 Cu         3.8339750000       11.0677057290        0.0000000000
 Cu         5.1119155470        0.0000000000        0.0000000000
 Cu         5.1119155470        4.4270557290        0.0000000000
 Cu         5.1119155470        8.8542442710        0.0000000000
 Cu         6.3900094530        2.2135942710        0.0000000000
 Cu         6.3900094530        6.6406500000        0.0000000000
 Cu         6.3900094530       11.0677057290        0.0000000000
 Cu         7.6679500000        0.0000000000        0.0000000000
 Cu         7.6679500000        4.4270557290        0.0000000000
 Cu         7.6679500000        8.8542442710        0.0000000000
 Cu         8.9458905470        2.2135942710        0.0000000000
 Cu         8.9458905470        6.6406500000        0.0000000000
 Cu         8.9458905470       11.0677057290        0.0000000000
 Cu        10.2239844530        0.0000000000        0.0000000000
 Cu        10.2239844530        4.4270557290        0.0000000000
 Cu        10.2239844530        8.8542442710        0.0000000000
 Cu        11.5019250000        2.2135942710        0.0000000000
 Cu        11.5019250000        6.6406500000        0.0000000000
 Cu        11.5019250000       11.0677057290        0.0000000000
 Cu        12.7798655470        0.0000000000        0.0000000000
 Cu        12.7798655470        4.4270557290        0.0000000000
 Cu        12.7798655470        8.8542442710        0.0000000000
 Cu        14.0579594530        2.2135942710        0.0000000000
 Cu        14.0579594530        6.6406500000        0.0000000000
 Cu        14.0579594530       11.0677057290        0.0000000000
 Cu         0.0000000000        2.9513704860        2.0869457760
 Cu         0.0000000000        7.3785590280        2.0869457760
 Cu         0.0000000000       11.8056147570        2.0869457760
 Cu         1.2779405470        0.7379090280        2.0869457760
 Cu         1.2779405470        5.1649647570        2.0869457760
 Cu         1.2779405470        9.5920204860        2.0869457760
 Cu         2.5560344530        2.9513704860        2.0869457760
 Cu         2.5560344530        7.3785590280        2.0869457760
 Cu         2.5560344530       11.8056147570        2.0869457760
 Cu         3.8339750000        0.7379090280        2.0869457760
 Cu         3.8339750000        5.1649647570        2.0869457760
 Cu         3.8339750000        9.5920204860        2.0869457760
 Cu         5.1119155470        2.9513704860        2.0869457760
 Cu         5.1119155470        7.3785590280        2.0869457760
 Cu         5.1119155470       11.8056147570        2.0869457760
 Cu         6.3900094530        0.7379090280        2.0869457760
 Cu         6.3900094530        5.1649647570        2.0869457760
 Cu         6.3900094530        9.5920204860        2.0869457760
 Cu         7.6679500000        2.9513704860        2.0869457760
 Cu         7.6679500000        7.3785590280        2.0869457760
 Cu         7.6679500000       11.8056147570        2.0869457760
 Cu         8.9458905470        0.7379090280        2.0869457760
 Cu         8.9458905470        5.1649647570        2.0869457760
 Cu         8.9458905470        9.5920204860        2.0869457760
 Cu        10.2239844530        2.9513704860        2.0869457760
 Cu        10.2239844530        7.3785590280        2.0869457760
 Cu        10.2239844530       11.8056147570        2.0869457760
 Cu        11.5019250000        0.7379090280        2.0869457760
 Cu        11.5019250000        5.1649647570        2.0869457760
 Cu        11.5019250000        9.5920204860        2.0869457760
 Cu        12.7798655470        2.9513704860        2.0869457760
 Cu        12.7798655470        7.3785590280        2.0869457760
 Cu        12.7798655470       11.8056147570        2.0869457760
 Cu        14.0579594530        0.7379090280        2.0869457760
 Cu        14.0579594530        5.1649647570        2.0869457760
 Cu        14.0579594530        9.5920204860        2.0869457760
 Cu         5.0551146943        1.5290522274        4.1646126733
 Cu         3.8590477648        3.7209899974        4.0908127697
 Cu         6.3532051562       12.5351526646        4.1926525252
 Cu         2.5043811519        5.9595147073        4.1107267019
 Cu         3.7821492177       12.5803434326        4.0917536131
 Cu        11.5532877116        3.6639397678        4.1096564062
 Cu         2.5630220943       10.3605477212        4.2011932731
 Cu         1.2408546760       12.5427378606        4.1447423924
 Cu         5.0709629142       10.3446742034        4.1393228087
 Cu        12.7789604322        5.9680864319        4.1497330521
 Cu        10.1272116849        1.4301810028        4.1188042040
 Cu         2.5975862465        1.5241548743        4.1677408297
 Cu        14.0450273027        8.2015938304        4.2100892120
 Cu        12.7267841285       10.3750899089        4.1732864987
 Cu         7.6008097583       10.4175176837        4.1441853054
 Cu         3.7995149226        8.1907384172        4.1370021527
 Cu        12.7257629881        1.5129329138        4.0927431428
 Cu         7.6299546337        1.5443076139        4.1597618911
 Cu         8.9671832638        8.2131969833        4.1409091653
 Cu        11.4748678225       12.5825138096        4.1278079291
 Cu         8.8564334019       12.5096109903        4.1261582650
 Cu        -0.0245556992        5.8866018958        4.2513368976
 Cu        11.5283396538        8.1572591709        4.1327391332
 Cu         6.3474760438        8.1936357997        4.1442748096
 Cu         6.3943707835        3.7439604713        4.1418930308
 Cu         1.2850147487        8.0884132700        4.0938595306
 Cu        10.2120624393       10.4490417566        4.0955415188
 Cu         5.1502010708        5.9686053132        4.1261953356
 Cu        10.1923423501        5.8785280188        4.1502967150
 Cu        14.0084437972        3.7291254198        4.2632528697
 Cu        14.0173100492       12.5619523805        4.1150501337
 Cu         0.0468010171        1.4997860434        4.1176093749
 Cu         1.3046167036        3.7222429461        4.1350404690
 Cu        -0.0219398573       10.3399580270        4.1742831984
 Cu         8.9306352546        3.7490579993        4.0917399258
 Cu         7.7233024583        6.0216809283        4.0731436005
 Cu         3.8962284118        2.2419452790        6.2591598052
 Cu         5.1067007668        0.0934134978        6.3004144435
 Cu        12.8359473885        8.9141956169        6.2354778008
 Cu         5.0873242590        4.4438572184        6.2385912438
 Cu        11.4405640895        2.2755049822        6.1982006863
 Cu         9.0711015595        6.7401807934        6.2784328098
 Cu         3.8613685643       11.0684510007        6.2415740578
 Cu        12.7844155574        4.4545316993        6.3122351014
 Cu         6.3798284518       11.2012489388        6.3167704317
 Cu         2.5515395392        8.9147491454        6.2708037634
 Cu         1.2198274841       11.0505041634        6.2849977830
 Cu         7.6432276813        0.1158010415        6.2049456119
 Cu         6.4425761612        6.7595904530        6.2496650888
 Cu         6.3771541506        2.2992200822        6.3584866261
 Cu         3.8022731520        6.6388376324        6.1255103433
 Cu         2.6633918490        4.4008432797        6.1480331659
 Cu         0.0095959325       -0.0863786534        6.1605738946
 Cu        11.4738431874       11.0979439577        6.3060444705
 Cu        10.3000429065        4.4560438235        6.2322215439
 Cu         7.6860168315        8.9295886654        6.1969669352
 Cu         2.5337602088       -0.0516231373        6.1711640581
 Cu         5.1270858305        8.8763839295        6.2811342977
 Cu         1.2624072207        6.6193907325        6.1573686716
 Cu         8.9441157711        2.2307413815        6.1894135101
 Cu        12.7870034821        0.0150102116        6.2124664025
 Cu        14.0848909346        6.6987689958        6.1956066662
 Cu        10.2232921132        0.0734752032        6.3175129855
 Cu        10.2393604956        9.0849118645        6.1517983686
 Cu         8.8884218819       11.2180176952        6.3468473286
 Cu        11.5423434986        6.7289989974        6.2701181812
 Cu        14.0060377919        2.1739999478        6.3605286475
 Cu         7.6356325317        4.5568412650        6.2446954014
 Cu        -0.0339735528        8.9061597856        6.3355202322
 Cu         1.3378214044        2.0932938557        6.2119109678
 Cu        14.0370868682       11.0825502191        6.2598178023
 Cu         0.0896000572        4.3716076630        6.2189450663
  O         4.0255012498       14.2958640745        9.4221417594
  O         2.0883501948       11.5278690372        9.2975019333
  O         9.3414014430       12.9260284672        9.2514915983
  O         0.8917710865        0.6410156762        9.6526520353
  O        -1.1153146414        4.2068264330        8.9845517149
  O         1.5704202510        6.2422951460        9.0978356261
  O        10.7079492812        4.1743738133        9.3888183715
  O        12.3831454545       12.5934926927        9.3692164301
  O         4.5607674436        9.9857111952        9.6219343127
  O        13.3974547152        6.3892962551       10.9731143823
  O        13.7193159993        8.4838116242        9.4286300758
  O         4.5499453080        2.7215510575       11.5144795226
  O        -1.6891693386       15.2192773927       12.1565411323
  O         7.3833240502        2.7688655436       11.3343353495
  O        10.2747306422        2.9104122915       14.2924620093
  O         1.2794258414        8.2305618795       11.5042293871
  O         1.7624107825       10.9728623697       12.3217112269
  O         4.1597405396       11.9594963776       11.8979953732
  O         1.7291948173        3.5600267727        9.3837356088
  O         8.6559061435        2.4034596434        9.1760692712
  O        10.6906777873       10.2971348643        9.8155233206
  O        -1.5140101737       12.1706426828       12.4749117615
  O         5.5689315893        7.2415990955       12.6203012303
  O         9.9574048121       14.8473476887       12.0531491773
  O         3.3335195738        5.2254464036       11.6949759478
  O         5.8413174750        9.9529422648       13.4013523607
  O         4.2114800879       14.2441860941       13.4993498361
  O         1.7588687074        4.1977980441       13.5627297929
  O        -1.6320655260        6.1174942206       13.8792666438
  O        10.2129650109        8.4722185442       12.2703902195
  O         8.0138277591       10.9628223924       11.6587215490
  O         2.0796141761        8.6425095151       14.4152743549
  O         8.5651075584        2.3435268503       16.1151376448
  O         1.5511664507       13.4401251223       13.2547318908
  O        -4.6760161729       12.3061364778       12.4545548870
  O         8.6040627640        4.6844181108       12.8542016014
  O         6.2776195039        3.6993190329       16.2586578130
  O         6.8358062362        6.0945201589       14.7555747061
  O         7.8942528232       13.7324756947       14.4644919011
  O        10.7055248611        5.8081790204       11.6497257516
  O        12.7701833259        3.4079481149       14.8148535203
  O         3.5202853195        6.6921610161       16.5277779643
  O         4.6828894466       10.5796385285       15.9089499208
  O         6.1430694657       17.8106809250       19.4802806356
  O        14.6411474214       11.1286888542       15.0578194496
  O        -1.6787464670        2.6242461308       17.1572363251
  O         3.0632285024        3.9252636389       16.0329679858
  O         4.9361419265       13.4295148802       16.2323763969
  O         0.8304565218        6.4074288111       14.7179493791
  O         0.4123015962        6.5176556564       17.4463525654
  O         2.0918928735       10.7798768140       16.4213034547
  O        12.8637028150        8.3311749082       15.5007721954
  O         8.7679571490       11.4391872672       15.7327931172
  O         0.6736876273       14.4066729693       15.4415046002
  O         9.7268737504       15.6255129205       18.6835500095
  O        -2.0912154580       13.0988066371       16.7471428823
  O         0.7724875868        3.8852672866       17.9001462470
  O         5.6476826939        8.3240828387       17.2501064996
  O        12.1696371234        3.2930029865       19.0960019682
  O         6.3413707511       12.7979092730       18.7017809914
  O        10.9463048909       13.1323959200       15.3685664090
  O         9.7281367121        8.9421575367       15.0920601670
  O         8.2215656433        6.6435426083       18.9581756499
  O         2.2924905452       13.2700466187       17.2125573811
  O         3.8677747489        5.8539108004       20.8530043269
  O         8.1126845596        7.5438612155       16.6061668276
  O        11.1629777489       10.3729077410       21.0276731125
  O         1.9121361735        8.6314216410       18.3220585248
  O         4.2118378776        8.1853480005       19.4615003044
  O        13.0245802471        7.7024864587       18.2859456771
  O        -2.3849184224       11.4435509843       19.3554436842
  O         1.7744021454        3.5969155249       20.4071345224
  O         2.8565057847       12.8567506080       19.8453463010
  O         8.8109760898       11.4169928397       18.3638140634
  O        -0.4016195896        3.2902203540       22.6694971800
  O         4.8961436131       11.3880612315       20.8085957985
  O         2.3536420258        6.4056572478       23.2742067070
  O         7.6394419272       14.7894130946       20.1657475588
  O         9.9276549388        6.4808108221       21.4920927482
  O         8.9601237133        9.2872712336       20.1324119651
  O         0.9995597773       11.5375682361       21.2225253002
  O        10.8724954494       13.2482706620       19.5701704575
  O         7.8433533362        9.3357592543       22.4282742293
  O         4.8749739892       15.5579795423       23.0440326346
  O        -0.2009384784        7.7818894610       22.3840892508
  O        12.3708616454        5.7680096634       20.5524605164
  O        12.7965686150       15.4919387703       21.9064118157
  O         6.1974087783        4.8087532678       22.2780948271
  O        10.7375742483       12.6586974951       23.1658803171
  O        15.1345587972        9.2089535354       19.9353587863
  O         2.7951246176        1.4417109109       21.5983017454
  O         1.0555055779       14.3558814791       23.4434252536
  O        16.8626445993       10.0323453025       23.1665425414
  O         8.9540939869       18.0168281474       23.1865619165
  O        13.6102309684        5.5789718962       23.1963144308
  O         3.8701617904        9.1704859350       22.0241131418
  O         5.9486522974        7.4340138419       23.0574824611
  O         7.7298294662       14.5732734719       23.0569918530
  O        10.4781228576        2.6284860039       23.2263584982
  O        13.0579235294       10.8763059328       23.0859423982
  O        10.7492259994        8.3831801957       23.2180568313
  O         6.0834239084       12.4761212345       23.1794246617
  O        -1.0592861787       12.9829392769       22.2559972861
  H         4.0279759789        1.2060955250        8.4567320968
  H         9.2561835811       13.8010182925        8.8063788219
  H         2.3442011078       11.3464695051        8.2972339624
  H        -1.6454728642        4.6808537407        8.2549987861
  H        10.0069685003        3.4766536144        9.3150693974
  H         2.0819445264        6.4061607650        8.2791655597
  H         0.5694259958        0.7332353522        8.7054631283
  H         6.6372762329        4.5995267634        9.4462833595
  H         9.0076162558        5.8796128339        9.4842416297
  H         4.5316059856        6.1622460853        9.3303149986
  H         9.1869692564        8.1270000551       10.1798361246
  H        16.7708793338       13.0798954138        9.5483735319
  H         3.2262476212       13.7388316366        9.4729067758
  H         7.0226724007        9.6155903127       10.2076923875
  H         3.5976472838        8.3667606964        8.8880724354
  H         9.2623569604       12.3468508893        8.5149286878
  H         0.6468753004        6.4104170423        8.7744325684
  H        -3.0409933922       12.7510061201        8.4134107602
  H        10.9003351515        4.5414890766        8.4469222384
  H        -0.3182818205        3.9411525140        8.4337500255
  H         2.8084732122       11.1459100077        9.8348203003
  H        -2.9122242991        6.0825684614       11.1474756023
  H        13.2464873244        8.4881270369        8.5196827859
  H        13.8262385956        5.7147266618       10.3949475232
  H         4.1921044271        2.1979033956       10.7940906336
  H        -1.9149709664       15.7059280947       12.9474111324
  H         1.2978612948        7.4831250351       10.8681638407
  H        11.1799847017        3.2909617591       14.5449440885
  H         6.4063681615        2.7917553064       11.3419417088
  H        11.7346090970       11.8573575562        9.4975246823
  H         3.2945827694       11.5197089846       12.0812787029
  H        10.9413852945        9.8460725192        8.9683726990
  H         9.7747294480       10.5761132493        9.6965091657
  H         7.6133308184        3.6161303636       11.8660997895
  H         4.2780024400        3.7035144502       11.4500834782
  H         1.9842400998        4.5469057630        9.3441185153
  H        13.4118719935        7.6450219973        9.8611173591
  H         6.0172159196        7.0156806609       11.7627298982
  H        -1.7756511326       14.2672368798       12.3732371839
  H         8.2161111220        2.4292185986        8.2821852219
  H         1.7941113752       10.1858066406       12.9577480007
  H         9.6540348861        2.6859398939       15.1416561155
  H         4.2143034841       12.6483285203       12.6063005806
  H         2.0387212234        3.2197724693        8.5266188696
  H         4.4099880688       15.0366611840       12.9306307072
  H         1.6172727824       11.8198388351       12.8806090656
  H         5.1197828198       10.3950870928       12.8566808074
  H        10.0889797693        1.8907774060       13.0504406313
  H        -1.5334635683        6.3120161191       12.9081954352
  H         2.0464072373        8.0981974864       12.0888515201
  H         5.8558505293        8.9964757726       13.1005540604
  H         2.3062096741        3.9317280339       14.3863383649
  H        -2.5184998688       12.1137489243       12.4863459146
  H         1.3096093852        4.9750285553       13.9238522413
  H         3.9047909314        5.9271745597       12.0568975907
  H         7.6774400163       10.7713135140       12.5942144380
  H         8.0077824734        2.6384189555        9.9748732037
  H         9.0170740442       15.1005760152       12.0156492126
  H        -1.1479313502       11.5675981843       13.2468834266
  H        -2.1003807463        6.8509832956       14.3273480480
  H         6.0457061096        6.8492442667       13.4003695058
  H         8.2855658304        1.5101848184       15.6769916673
  H         2.7097277561        5.0227636859       12.4747343673
  H        10.2355601360        9.3694306260       11.8527581018
  H         4.6559641270       14.3825143178       14.3655578807
  H        10.4447762262       13.2158084105       12.1439694365
  H         1.3951884453        7.9527697022       14.3733978868
  H         7.1789872002       13.9024676526       13.8326105478
  H        10.7240142462        5.4899169365       10.7374832013
  H         9.9207385083        8.6663923750       13.1583646818
  H         2.4495852363       13.6169207198       13.4261992827
  H         8.7762670482       11.5600096946       11.7756899734
  H         4.3691409472        7.2272742213       16.6099697893
  H        -4.7236875997       12.3688622024       13.4151468389
  H        13.0624186837        4.2823961875       14.5923557414
  H         3.6450111583       10.6033950498       15.7370028633
  H         9.0235816121        4.0155005743       13.4626898736
  H         7.2260640652        6.6694041023       15.4226281017
  H         6.3786920098        4.5445998929       15.7793422611
  H         7.7569057791        2.9810283284       15.9986524244
  H         1.6933085849        9.3469664626       15.0194075677
  H         9.4558840526        4.8779095802       12.3729487929
  H        13.1253132088        3.1498266171       15.7312129073
  H        -2.2180002518        2.9929640227       17.9439565794
  H         7.5916514423        5.6454259079       14.2904732163
  H         7.8184485482       12.8001428375       14.8082706695
  H         0.9947119662       13.6018397158       14.1087199901
  H         3.0281570525        7.1405848201       15.8216498194
  H         5.4946980028        3.3749113072       15.7870978994
  H         5.3154907385       13.5765805692       17.1642710822
  H        10.6775400321        6.7948987539       11.7663345806
  H         0.2539624497       11.1595746891       15.2621101942
  H         5.1263434886       10.5958037796       14.9924264417
  H         3.3927288141        4.9018305602       16.1970940454
  H         8.8268501478       11.5084898642       16.7193618985
  H         6.3154423235       17.2459823081       18.6830381978
  H        -0.0886588987       14.8645465685       15.8756965826
  H         6.5171310450       17.3910811108       20.2823545898
  H        15.3056561169        6.2726205316       14.2385236625
  H        -1.2118832611       11.8292795434       15.4509961441
  H        13.3248963638        9.2072915209       15.2752626187
  H         1.0390252428        7.2327459738       17.7592431212
  H        -1.7251672008        1.5917267152       17.2538396043
  H         0.5419777156        6.3310913053       15.6176522423
  H         4.9855266573       12.4573280532       16.1456712311
  H         1.9859356144       10.0510366455       17.1012597202
  H        -0.0802582703        3.5972491898       17.5788056938
  H         2.3352176861        3.7444603677       16.6911674749
  H         5.3499942105        9.1389674141       16.6940698874
  H        11.2056122758        3.0075792966       19.0108333946
  H         9.0886571961       15.4050163519       19.3426551951
  H         9.1030661933       10.5546372108       15.4450458002
  H         0.6668742997        4.9226021771       17.8465793427
  H         2.2286734175       11.7452040695       16.8369111674
  H        10.6721097586        8.6239354149       15.2911064010
  H        12.3704509904       13.1852021114       16.1821856682
  H        -0.5488453471        6.7775259286       17.7550863572
  H         1.1964094862       14.0769027461       16.1912349511
  H         9.2439741380        2.1852717553       17.8841797330
  H        13.0482198043        8.3399620098       16.4959748243
  H         3.1373715152       13.8052673522       16.8962104501
  H         6.9837436899       12.1087659106       18.3614187812
  H        10.7354880074       14.0012952698       15.0933860669
  H         3.4902766073        5.6281159967       21.7056546812
  H        10.1608821286       12.5533758889       15.6047696300
  H         7.4886221199        6.0051617992       19.1107705488
  H         5.2046693619        8.3423787393       18.1769847015
  H        -2.3080131291       12.3935820068       17.4464150156
  H         7.2161293912        7.9670060315       16.9443697703
  H         9.0460571944        8.4333483003       15.7053193155
  H         4.6434889657        5.2664815414       20.7269097831
  H        12.2878699487        4.0877457796       19.6157728285
  H         8.5061989788        7.2403680134       17.3866785211
  H         5.7789716372       12.2699245155       19.3294197259
  H         4.1048525589        7.3508724712       20.0275840227
  H         1.6158492865        3.3572682696       19.4508867713
  H         2.4793945849       13.2251295722       18.1839412142
  H        11.5490362858        9.9977377172       21.8589354934
  H         4.2571827898        8.8141258419       20.2107020496
  H         2.6517829862        8.5703511555       18.9488293984
  H         8.7904699992        6.4845761038       19.7798880325
  H        12.4153757234       10.8840246535       19.9263111244
  H        -2.0786678051        8.6214614860       18.5108495480
  H         8.7873853384       10.4796629713       18.7582496724
  H        10.4013444134        9.7911948892       20.5342428515
  H         1.2612653057        9.1588465892       18.8284435864
  H         2.5637778305        6.8989354269       24.0156239331
  H         0.1095843761       15.8701874416       23.2218585092
  H         4.4470130573       10.7359354614       21.3357081240
  H        -1.6429569660       11.6358042643       19.9023306853
  H         0.2965011808        3.5252705681       21.9661622782
  H         3.7288000057       12.4118452575       20.1564159847
  H        12.9705393667        7.3159024479       19.1588222524
  H         2.2259313409        4.4429778825       20.3986613479
  H         7.0902350428        8.6993351210       22.5881751821
  H         7.5696717033        1.2902340142       21.0902091116
  H         3.0500546251       13.7287796710       20.4205358841
  H        11.6775095329       12.8030805683       19.3471707210
  H         1.4104820738        6.6964956383       23.1288979710
  H         9.3880120222       11.9491462606       18.9765123338
  H         8.5604152750        9.4083103019       21.0466941976
  H         7.6635480470       10.1943005197       22.8265900987
  H        10.2637710865        7.3605534491       21.9330611635
  H         4.6742998047        2.2883509640       23.9955031957
  H         9.5253220093        5.8661873985       22.2178602148
  H        10.7587852624       14.1351883362       19.0327146356
  H        -2.6925975053       15.8702013430       21.0357452705
  H         5.2771894108       12.0071288809       21.5280466542
  H        11.5376014587        5.9002086753       20.9539514876
  H         5.6945011027        3.9755396471       22.5810220816
  H         0.2254462644       12.1998447470       21.3439055824
  H        10.8997944645       12.4145282323       22.2529865277
  H         7.2551317591       14.0480443353       19.5709030702
  H         1.7208749554       11.9926873518       20.7233710465
  H         8.8213569784        8.3160539741       19.9798338807
  H         2.4656090008        2.2444558260       21.0256138708
  H         4.0340204595        2.0466555794       22.6232470171
  H        11.3710814293       13.4140029254       23.2676269206
  H        -0.9040877709        7.1374383378       22.7386763745
  H         0.0231700524        8.5425642896       22.9889718729
  H        12.8423996038        5.4694908308       21.3276496979
  H        13.6604430367       15.9756002366       22.2366267445
  H        16.5466650373       10.8085085359       22.4860324640
  H        15.7327268976        9.8844247100       20.3704481981
  H         5.9372136114        7.5102709105       24.0311194527
  H         7.1203284134        4.5887180453       22.5833696635
  H         7.5702080495       15.5116111609       23.1808718906
  H        15.2056949523        8.5729971965       20.7162351588
  H         9.4588848454       17.1942796882       23.1463768135
  H         0.2150181692       13.8064117993       23.5188622526
  H        13.2940847153       18.9635244063       24.0853240812
  H         1.5947894314       14.2182235378       24.3242589067
  H         4.3241592166        8.5988094098       22.7272424450
  H        16.8442297168       10.3825260254       24.1052549789
  H        12.1125192300       10.8876000913       23.3175897834
  H         2.0224019551        1.1757715671       22.1227122557
  H        10.4928763613        2.7502639835       24.2360408642
  H        11.0905717800        7.9487932977       24.0551756255
  H         9.8123599002        8.4145508214       23.4878065845
  H         6.4015994116       13.3658553317       23.4034360866
  H         5.9127987927       12.0442571107       24.0337413182
  H        13.4920372655       10.6942510263       23.9615741873
  H        13.7696237545       13.7535394914       21.9003669863
  H         8.9222264472       18.2401084816       24.1293611946
  H        14.3284885805        4.9706255576       23.1917551615
  H         8.6955606776       14.3808550453       23.0861585438
  H         6.0197114819        6.4896464506       22.8010305054
  H        -1.6544451144       12.2733775176       22.5360308968
  H         3.1546310969        9.5339062379       22.5938626791
  H        11.4598881794        2.5405374502       22.8692652451
  C         6.6935104393        5.7005965082        9.5112222712
  C         8.0193914593        6.3495935051        9.7357916036
  C         5.5283841968        6.5289180691        9.3693658048
  C         8.1448552510        7.7321634838       10.0415313724
  C         7.0230093998        8.5618901589        9.9385347512
  C         5.7786045951        7.9478741003        9.5782317788
  C         4.5833497630        8.7809838268        9.3568126598
  K        11.9454624711        1.7834594458        9.8644955753
  K         1.0886940319        2.5091071637       11.5274492339
  K        -0.3248818680       11.0543693769       10.4142424247
  K         6.3337855806       12.3082083383        9.9578836015
