      468
999
 Cu         0.0000000000        0.0000000000        0.0000000000
 Cu         0.0000000000        4.4270557290        0.0000000000
 Cu         0.0000000000        8.8542442710        0.0000000000
 Cu         1.2779405470        2.2135942710        0.0000000000
 Cu         1.2779405470        6.6406500000        0.0000000000
 Cu         1.2779405470       11.0677057290        0.0000000000
 Cu         2.5560344530        0.0000000000        0.0000000000
 Cu         2.5560344530        4.4270557290        0.0000000000
 Cu         2.5560344530        8.8542442710        0.0000000000
 Cu         3.8339750000        2.2135942710        0.0000000000
 Cu         3.8339750000        6.6406500000        0.0000000000
 Cu         3.8339750000       11.0677057290        0.0000000000
 Cu         5.1119155470        0.0000000000        0.0000000000
 Cu         5.1119155470        4.4270557290        0.0000000000
 Cu         5.1119155470        8.8542442710        0.0000000000
 Cu         6.3900094530        2.2135942710        0.0000000000
 Cu         6.3900094530        6.6406500000        0.0000000000
 Cu         6.3900094530       11.0677057290        0.0000000000
 Cu         7.6679500000        0.0000000000        0.0000000000
 Cu         7.6679500000        4.4270557290        0.0000000000
 Cu         7.6679500000        8.8542442710        0.0000000000
 Cu         8.9458905470        2.2135942710        0.0000000000
 Cu         8.9458905470        6.6406500000        0.0000000000
 Cu         8.9458905470       11.0677057290        0.0000000000
 Cu        10.2239844530        0.0000000000        0.0000000000
 Cu        10.2239844530        4.4270557290        0.0000000000
 Cu        10.2239844530        8.8542442710        0.0000000000
 Cu        11.5019250000        2.2135942710        0.0000000000
 Cu        11.5019250000        6.6406500000        0.0000000000
 Cu        11.5019250000       11.0677057290        0.0000000000
 Cu        12.7798655470        0.0000000000        0.0000000000
 Cu        12.7798655470        4.4270557290        0.0000000000
 Cu        12.7798655470        8.8542442710        0.0000000000
 Cu        14.0579594530        2.2135942710        0.0000000000
 Cu        14.0579594530        6.6406500000        0.0000000000
 Cu        14.0579594530       11.0677057290        0.0000000000
 Cu         0.0000000000        2.9513704860        2.0869457760
 Cu         0.0000000000        7.3785590280        2.0869457760
 Cu         0.0000000000       11.8056147570        2.0869457760
 Cu         1.2779405470        0.7379090280        2.0869457760
 Cu         1.2779405470        5.1649647570        2.0869457760
 Cu         1.2779405470        9.5920204860        2.0869457760
 Cu         2.5560344530        2.9513704860        2.0869457760
 Cu         2.5560344530        7.3785590280        2.0869457760
 Cu         2.5560344530       11.8056147570        2.0869457760
 Cu         3.8339750000        0.7379090280        2.0869457760
 Cu         3.8339750000        5.1649647570        2.0869457760
 Cu         3.8339750000        9.5920204860        2.0869457760
 Cu         5.1119155470        2.9513704860        2.0869457760
 Cu         5.1119155470        7.3785590280        2.0869457760
 Cu         5.1119155470       11.8056147570        2.0869457760
 Cu         6.3900094530        0.7379090280        2.0869457760
 Cu         6.3900094530        5.1649647570        2.0869457760
 Cu         6.3900094530        9.5920204860        2.0869457760
 Cu         7.6679500000        2.9513704860        2.0869457760
 Cu         7.6679500000        7.3785590280        2.0869457760
 Cu         7.6679500000       11.8056147570        2.0869457760
 Cu         8.9458905470        0.7379090280        2.0869457760
 Cu         8.9458905470        5.1649647570        2.0869457760
 Cu         8.9458905470        9.5920204860        2.0869457760
 Cu        10.2239844530        2.9513704860        2.0869457760
 Cu        10.2239844530        7.3785590280        2.0869457760
 Cu        10.2239844530       11.8056147570        2.0869457760
 Cu        11.5019250000        0.7379090280        2.0869457760
 Cu        11.5019250000        5.1649647570        2.0869457760
 Cu        11.5019250000        9.5920204860        2.0869457760
 Cu        12.7798655470        2.9513704860        2.0869457760
 Cu        12.7798655470        7.3785590280        2.0869457760
 Cu        12.7798655470       11.8056147570        2.0869457760
 Cu        14.0579594530        0.7379090280        2.0869457760
 Cu        14.0579594530        5.1649647570        2.0869457760
 Cu        14.0579594530        9.5920204860        2.0869457760
 Cu         5.0365038609        1.5042798311        4.1218210124
 Cu         3.8172610961        3.7259418863        4.1041723728
 Cu         6.3488557429       12.5675609768        4.1924682944
 Cu         2.5259559381        5.9711477211        4.1371374331
 Cu         3.8760430904       12.5726502807        4.1373421672
 Cu        11.5924631451        3.6447740130        4.0974368765
 Cu         2.5883239515       10.4110521919        4.1379451316
 Cu         1.2704046731       12.5866911105        4.0724000312
 Cu         5.0461491949       10.3057290236        4.1599001411
 Cu        12.7857222155        5.8698689889        4.2022155319
 Cu        10.2525297450        1.4911806076        4.2130186275
 Cu         2.5281073943        1.5209513082        4.0438237129
 Cu        14.0842568835        8.1029158681        4.3040279902
 Cu        12.7772783658       10.2151919517        4.1873308216
 Cu         7.6679434187       10.3495762446        4.0806674086
 Cu         3.7796649144        8.1556865165        4.1262436067
 Cu        12.7413601314        1.5029047690        4.1278466653
 Cu         7.6635508167        1.5045416050        4.0749321693
 Cu         9.0250272005        8.0919496780        4.0767669667
 Cu        11.5659486157       12.4887324395        4.1005988895
 Cu         8.8734664568       12.5196327923        4.1506403931
 Cu        -0.1469474024        5.9028481057        4.2125125995
 Cu        11.5810113285        8.1231010610        4.2223799027
 Cu         6.3866061983        8.1869776797        4.1062615824
 Cu         6.3131572050        3.7645923692        4.1401292198
 Cu         1.2391613687        8.2027916834        4.2012005277
 Cu        10.1479845963       10.3739780038        4.1293938698
 Cu         5.0570819663        5.9365559975        4.1987442806
 Cu        10.2708357841        5.8837385241        4.0993566156
 Cu        14.0364462090        3.6687220695        4.1044758726
 Cu        14.0335520968       12.5068892791        4.0935070652
 Cu        -0.0468997528        1.4288415444        4.1216087314
 Cu         1.2177951557        3.7783542053        4.1061654666
 Cu         0.0412707129       10.3264523967        4.2052664412
 Cu         8.9666816022        3.6815438579        4.1424238522
 Cu         7.7542770169        5.9745847365        4.1001726942
 Cu         3.7282016986        2.3343918935        6.1490813543
 Cu         4.9641642881        0.0799351926        6.4255535264
 Cu        12.7275421028        8.8114546773        6.3856547462
 Cu         5.1496593086        4.4571130635        6.2403402911
 Cu        11.4507908438        2.1872817362        6.2918314626
 Cu         8.9877497002        6.5733283561        6.2222378181
 Cu         3.7546222764       11.0720230721        6.3119472775
 Cu        12.8275416404        4.3953547603        6.1685944042
 Cu         6.3439921735       11.1259559735        6.1555765326
 Cu         2.5290098461        8.9049649117        6.3717524110
 Cu         1.2013833925       11.1439077314        6.2174753081
 Cu         7.6458006637       -0.0326888101        6.2412481039
 Cu         6.3709357201        6.7351175833        6.1048546267
 Cu         6.3623777486        2.2052222835        6.2721684111
 Cu         3.7833358841        6.7589293007        6.3072413868
 Cu         2.5495714578        4.5357979540        6.2923697622
 Cu         0.0173107801       -0.0422109815        6.2648445884
 Cu        11.4923291686       11.1149245820        6.2512270476
 Cu        10.2474670575        4.3074055401        6.2025248034
 Cu         7.7334260685        8.9374686613        6.2195307109
 Cu         2.5317477302        0.0939703976        6.1248304301
 Cu         5.1135190618        8.9176808107        6.3474591322
 Cu         1.2960685307        6.6212807589        6.1396712797
 Cu         8.8902758425        2.2106821932        6.3081492914
 Cu        12.7846538705        0.0333645238        6.2336436341
 Cu        14.0476384460        6.5945843748        6.4897121251
 Cu        10.2261384080        0.0016642825        6.2281289567
 Cu        10.2193646738        8.8507625027        6.1338669554
 Cu         8.9411434235       11.0575231213        6.3093658293
 Cu        11.4695205175        6.5645575230        6.4101880632
 Cu        14.0144750299        2.1533058083        6.1557193740
 Cu         7.6664728457        4.5008460770        6.2091454630
 Cu        -0.0672685614        8.9380775290        6.4420676225
 Cu         1.2409256871        2.2793623462        6.1636033212
 Cu        13.9577157657       11.1097174612        6.2487988355
 Cu         0.0004404946        4.3281622239        6.3295358373
  O         1.3846416007       12.8225262536        9.4152934446
  O         1.3795828054        9.8638958273        9.2128164648
  O         7.3251153224       10.5643116368        9.4069147787
  O        -1.6895873693       -1.5692253500        9.4511559555
  O        -1.3095916942        2.4915470921        9.3285177870
  O         0.6109179012        6.1744138528        9.4891622813
  O        10.1577383934        1.9318441417        9.4204562028
  O        10.4676979592       10.9268980028       11.8824246955
  O         3.5175826604        7.9651104725        9.1015296932
  O        11.4429138567        6.7681682355       10.7644963702
  O        11.8003822817        4.0202374080        9.1882672998
  O         3.5357001143        1.1152027638        9.4452020945
  O        -2.2787368042       13.8073658797       11.6671114205
  O         5.5695785604       -0.0921333977       10.8131818571
  O        11.4862536458        1.9353533851       13.5097294577
  O        -1.2468347471        6.6859210291       11.4561436549
  O         1.0684785568       10.0772961423       12.6333776979
  O         3.6417247364       10.5362580192       11.7701945997
  O         1.1572170324        3.5587371711        9.5043579182
  O         7.9443412927       -0.1131149702        9.5444790392
  O        11.4654081666        9.1745497848        9.6049100413
  O        -2.1573315352       11.1816238366       12.5988279292
  O         4.9665997148        5.4815700391       12.5107215020
  O         9.4731328055       16.1681344898       11.9526629753
  O         5.2981887180        2.3962903948       12.6209249992
  O         5.2743466649        8.4401006638       12.6077353505
  O         4.1019475484       12.2064961805       14.1074504801
  O        -0.0528455094        4.5272018204       12.6918371892
  O        -2.6314869575        5.9181302884       16.2929865486
  O         9.4909723181        7.2169658149       12.6930592312
  O         7.7721316681        8.6352368586       11.5165878151
  O         1.2001744625        8.8003638381       15.0670182728
  O         8.0949401897        1.5403136168       15.6027163731
  O         1.0251325521       12.7579106540       12.9956092155
  O        -5.9035856905       11.4591622244       15.8377750505
  O         7.5794704830        1.1108208679       12.9197110301
  O         3.9191223870        1.7798514077       14.9806140317
  O         6.7263289158        5.4880973557       15.1772953776
  O         8.2753977519       11.6872222533       13.5467619848
  O         8.1033582997        4.9679537582       13.1846357818
  O        13.1339775086        3.8849315376       14.5276674977
  O         4.9810325555        3.8536909086       16.4363956983
  O         3.8600823580        9.3127308183       16.3104475275
  O         5.8699373833       18.3380709683       19.8856606982
  O        14.5433753505       12.0550311022       14.9966164017
  O        -1.2176390587        2.7881453137       17.0384441270
  O         2.3933140598        4.5463340974       16.6494592809
  O         4.2147110226       12.0698272381       17.9521030841
  O         0.8887460014        5.9482326248       14.9806802797
  O        -1.2673591964        6.2616055674       18.7963463440
  O         0.1490341856       10.5057444717       17.1731454283
  O        11.6346447504       10.3097967620       16.8891033411
  O         6.2395561230       10.1828013018       14.5267815199
  O         0.8274725370       14.9941135634       15.1411083573
  O         9.0517657622       16.3867207630       17.4927133251
  O        -1.9680829454       13.2761051105       17.1430033606
  O         0.9071928419        4.3682819144       18.8204960838
  O         4.7338386676        7.3687193070       18.7848255255
  O        11.4448007625        4.2050024408       17.8400891521
  O         6.7874044053       12.9285774507       17.2147913831
  O        10.7527236482       13.9591887122       15.8255820355
  O        10.5905462757        7.5081054769       15.2364352183
  O         8.2932672604        5.5360859794       18.6789533157
  O         1.6117162833       12.9367829333       17.2332840000
  O         3.0554053352        5.7497642165       23.1301514815
  O         8.3429008097        7.2953190600       16.5588557459
  O         9.1901430719        9.3059071502       20.9293812217
  O         0.2840573069        9.1863397166       19.4966037011
  O         5.5792985729        4.7618555384       22.6650268909
  O        11.7504350745        9.7088817218       19.7764693258
  O        -3.2141604576       12.4436288720       19.7544992182
  O         1.0593868883        4.1442922720       21.8596502174
  O         3.5142755981       14.1554943367       19.0205609118
  O         7.6682995426        9.7366292446       17.1308433835
  O        -1.7140356883        4.5711024076       22.4429396246
  O         4.4212025044       11.0548278756       20.3029288883
  O         3.0187612078        8.4849674960       23.5293095994
  O         5.6928302681       15.7998790459       19.0406184040
  O         9.7335108250        6.6160174705       20.9944658919
  O         6.5362427028        9.5730762484       19.3988394225
  O         0.3405772896       14.7785718219       18.9643164368
  O        10.4604112066       14.1907611721       20.6021479481
  O         8.5657796626       10.6729836835       23.3714472684
  O         5.4665543778       15.3367172784       23.0767262825
  O         0.1648271382        8.7856307300       23.8894314111
  O        11.9661607293        5.3550977137       20.3217793064
  O        12.8428836771       15.1498080219       22.3672664115
  O         6.1681379625        8.4554832858       22.4793038290
  O        10.4244080570       12.9937118592       23.0128942229
  O        14.7463736067       10.4579689363       21.7909372269
  O         3.4335392567        1.1597902675       21.9489283480
  O         0.7139620699       15.0975229279       22.9430830355
  O        16.6683875810       12.3291825080       23.4107876310
  O         8.3506791533       18.8064673593       22.8982890837
  O        13.6090915609        6.9435711297       23.9913392531
  O         3.1433253471        8.7950189078       20.7830753963
  O         4.0046348674       11.9246448644       22.9835722038
  O         7.8951189095       14.3632801212       20.0165873574
  O         9.1768349138        2.8777199344       23.1350074812
  O        12.4792989944       10.9650070211       23.1039138241
  O        11.4040128907        8.1296093883       23.1266356876
  O         6.7993975053       12.9107156096       22.5264950403
  O        -1.0719635426       13.3195011666       20.7917153251
  H         1.5105796624       -0.5021623473        8.3791023217
  H         7.7723649068       11.4839494976        9.5478842073
  H         1.2151955400       10.0441564942        8.2499978946
  H        -0.4728837616        3.0485503459        9.0421327934
  H        10.7136485527        2.7506133379        9.3334537190
  H         0.2008678827        6.0730800698        8.5787705847
  H        -1.3240790877       -1.8696775197        8.5197133456
  H         6.2643350453        2.8798249071        9.0927447870
  H         8.4078941698        4.3010756628        9.5776774387
  H         4.1322904317        4.0778492490        9.2687940134
  H         8.3568543035        6.7307720540        9.4831561222
  H        14.3820537268       12.1222830310        9.9135383992
  H         1.3911315345       11.8710579778        9.5979781516
  H         6.2189872386        7.8906361717        9.4673745726
  H         2.8167855793        6.1360457866        9.1296323260
  H         7.5516983711       10.2389277005        8.4630798921
  H        -0.1232060173        6.3222837853       10.1887711285
  H        -4.8558760412       10.1355143418       11.2346814732
  H         9.5731397322        1.9089969079        8.5831174675
  H        -1.4364585016        1.8365906033        8.6143858078
  H         1.9398893704        8.9997441332        9.1873236585
  H        -4.6842173400        7.0115714233       11.4097686848
  H        11.8924479912        4.4113152715        8.2461514081
  H        11.3296187458        5.8616214427       10.3457526421
  H         3.8778602088        1.0882591345        8.5614094101
  H        -2.8385492547       14.1961199337       12.4082653504
  H        -1.0246575650        5.9880762823       12.1194851458
  H        12.0342898756        2.7166004031       13.8080973871
  H         4.7973595434        0.4535233728       10.5761109172
  H         9.6061957641       10.8713123508       12.4021263745
  H         2.7114475244       10.2207743822       11.9295448586
  H        11.3819004804        9.2644840831        8.6178836041
  H        11.3210599006        8.1829876782        9.7279680800
  H         6.0837240391        0.3815069756       11.5140936181
  H         2.7225222033        0.6081818502        9.5153869127
  H         0.9819866048        4.5476158385        9.5517781843
  H        12.6047039503        3.4836388635        9.2233035661
  H         5.1327538074        5.2406747566       13.4532815873
  H        -2.0230732585       12.9182290832       11.9880244818
  H         8.0237603308        0.2238044708        8.5854626130
  H         1.0667686951        9.4919256976       13.4144571072
  H        11.1239282980        1.4252323775       14.3244385469
  H         3.8443409721       11.1396624909       12.5524854017
  H         1.9384317355        3.4254832900        8.9050403628
  H         4.1489007642       13.1183250561       14.3644843527
  H         0.9816821578       11.0201347241       12.9328747201
  H         4.7743055277        9.1464072725       12.0485638326
  H        10.3412910094        2.7984844381       12.5005202075
  H        -3.4595752686        6.3112440745       15.9325530068
  H        -2.3039345716        6.6483518110       11.3329863817
  H         4.8730770677        7.5357883462       12.4828170661
  H         0.3774806351        4.9336874266       13.4717641591
  H        -3.1247897632       11.1229939138       12.4584485525
  H        -0.8478681242        4.1486890395       13.2096796846
  H         5.2388475577        3.3539792242       12.6868231321
  H         6.8998358223        8.5859920201       11.9774274028
  H         7.0110586752        0.0148364902        9.8621118415
  H         9.7346156806       15.9188208970       11.0339560386
  H        -1.9894879974       11.4942196583       13.5584989251
  H        -3.1056932677        5.2207851819       16.8429749973
  H         5.9619326556        5.5588892666       12.3260322862
  H         7.4861461304        0.9132788658       16.0167124598
  H         4.6850258937        2.1656448014       13.3364038746
  H         8.8418955075        7.9413128805       12.2832652952
  H         4.7057841717       11.6822033101       14.6919857340
  H         9.0666899900       11.3119837155       14.8889046905
  H         1.1838311549        7.8211441459       15.0165950897
  H         7.3753183475       11.2273079238       13.6829505201
  H         8.6353417630        5.8097294227       13.0850386967
  H         9.8772380462        7.5813803814       13.6035125077
  H         1.8280072950       12.6598108963       13.5213578003
  H         7.6146815007        9.3492313795       10.8654694071
  H         5.4300710117        3.4991803102       17.2400693246
  H        -5.0333173055       10.9642422992       15.9061369117
  H        12.8907483500        4.7417224406       14.9469879749
  H         3.0219173981        9.2575176086       15.7439591794
  H         8.1925104729        1.6930337676       12.3769878985
  H         7.2003869520        6.2840849527       15.5071152981
  H         2.9535902134        1.8586928680       15.1196223782
  H         7.9749130943        1.2795461631       14.6501472654
  H         0.7443868731        9.0124347223       15.9058069043
  H         6.8358305535        1.6908222760       12.9933264705
  H        13.4648680256        3.4469159096       15.3282374296
  H        -2.1407063422        2.9129030927       17.4768372311
  H         7.2784308913        5.0563577135       14.4774125485
  H         8.0436677975       12.5699762027       13.2736949137
  H         0.3322907865       12.6251345326       13.7170000152
  H         5.7217241589        4.4134284039       16.0104638866
  H         4.2183183196        2.5557183597       15.5607019346
  H         4.9832977457       12.5973404763       17.7107978235
  H         8.4774819172        4.3325869908       12.5566582491
  H        -0.2692754125       11.4149684904       15.5378078051
  H         3.7161376833       10.0832169908       16.9158859424
  H         3.4140973788        4.6594766025       16.5785927746
  H         6.4167528038       10.0019761220       15.4900421863
  H         5.4996221163       17.4385620741       19.6530625337
  H         0.3860293267       15.6786372411       15.7081815504
  H         5.8227428810       18.3405091352       20.9002438241
  H        15.3953296102        5.7579054447       15.4261430660
  H        -1.1955403668       12.5876081548       15.7615457886
  H        12.5744063010       10.4101368469       16.6091692192
  H        -1.0900737694        7.0673256511       19.2423487801
  H        -1.2251529656        1.8186376057       17.0693684163
  H         1.4451239522        5.4117346427       15.5948070092
  H         4.4783211791       11.6649056515       18.8364972855
  H         0.0717706205       10.0086463559       18.0197602595
  H         0.4735610018        3.4918048345       18.7017591009
  H         2.0507520479        4.4372097276       17.5542362304
  H         4.5865944022        7.3663332685       17.7989300110
  H        10.5228844361        3.7938991289       17.7069679669
  H         8.6310577113       17.2834946991       17.5660501935
  H         5.6981416701        9.3780890947       14.2448511505
  H         0.1766101713        5.0400785043       18.8387405108
  H         0.7153781625       11.3285327165       17.3771868280
  H        10.8643401826        8.4808890820       15.2998854758
  H        12.3802456951       13.4950466362       16.8639693113
  H        -1.5551796910        6.5273614402       17.8736870052
  H         0.8807134015       14.1971437875       15.6929832035
  H         8.7635252698        2.7700083564       16.5735528204
  H        11.6907651692        9.9916484916       17.8592148224
  H         2.5656767416       12.7542039060       17.3381089461
  H         6.9151311552       11.9817810417       17.0171025868
  H        10.4984804610       13.0000634734       15.7509071622
  H         3.9806867937        5.3181372110       23.0653347862
  H         9.8165663268       14.2557876449       15.8959820158
  H         7.3567641158        5.3943407711       18.9767313466
  H         5.0934223620        6.5004517721       19.2052298093
  H        -1.9643676716       12.9628493816       18.1007001296
  H         7.9215451545        8.1595096248       16.7351170736
  H         9.8088046912        7.2520381848       15.7683871545
  H         2.8416666125        5.5813863977       24.0462062633
  H        11.4533316429        4.5079158469       18.8440717041
  H         8.3076983197        6.7248741389       17.3893778300
  H         7.4195876088       13.0551336676       17.9482760374
  H         5.4919388885        3.8141868943       22.8683927648
  H         1.2209262847        4.2503187433       20.8957582679
  H         1.3715958529       13.6093116794       17.9635502595
  H         9.0482156745        9.5752724498       21.8305531211
  H         6.4981337282        5.1064521623       22.9532295397
  H         1.1987010580        9.1849135492       19.7677109503
  H         8.7459583268        6.0827968476       19.4163213274
  H        11.9564081134       11.5130891131       19.8653626988
  H        -4.5339014941        9.5711313650       20.0480712328
  H         8.3734849577       10.4711685734       16.9182418037
  H         8.2964285531        9.3413845416       20.4779097167
  H        -0.1604489729        9.8627773982       20.1201588171
  H         3.3452425548        7.5444069782       23.4657986947
  H        -2.2360256859       17.9864701862       21.6208250351
  H         3.9109419981       10.1289323824       20.5687292062
  H        -2.4125693447       12.7551984660       20.2746709018
  H        -0.7868275659        4.6813716176       22.2188297838
  H         3.5850073692       13.2069963588       18.7573494647
  H        12.2033575959        9.0026746472       20.2603038324
  H         1.7903429977        4.7356933728       22.1817057748
  H         8.5911420284       10.5749521105       24.3649932640
  H         6.5009862600        2.0802562536       19.4442651090
  H         3.5692221695       14.2272744049       19.9904416415
  H        11.0180432176       13.3955486518       20.3778974056
  H         3.6515617357        9.1171464764       23.8768656070
  H         7.4419602071        9.7117024261       18.1130120263
  H         5.7483046957       10.2611184901       19.6059137793
  H         9.3517672110       11.2713692949       23.2675440228
  H         9.5056372594        7.5853932371       21.0810929641
  H         5.2994632794        1.9008110596       24.0247656309
  H         9.0965529406        6.1381293175       21.6532514062
  H        11.2040152520       14.8569192969       20.6703025591
  H        -2.1458654445       16.1014954470       22.5057656355
  H         4.4703960484       11.5519254123       21.1117317250
  H        11.2532221325        5.9052542501       20.7128089272
  H         6.0090977431        8.2646941431       23.4559096946
  H        -0.1539945207       14.3330853086       19.7515647252
  H        10.3467115712       13.6574260030       22.1741845106
  H         4.9370475298       15.1029851060       18.9745778257
  H         1.2139062321       15.0627785596       19.3508583045
  H         6.2305867473        8.6873816605       19.2277886269
  H         2.5251948778        1.4073038296       22.2837231624
  H         4.5963638230        1.8529809490       22.5938418808
  H        10.1726077489       13.4087050975       23.8352831757
  H        -0.4965822768        8.0127342392       23.8080239615
  H         1.0958568332        8.5317177653       23.8978121379
  H        12.5849937028        5.9170293499       19.7537175850
  H        12.1205376731       14.9259373898       22.9606342197
  H        15.8639245451       12.0204916889       23.9252526248
  H        13.8708282317       10.6100850443       22.2457507315
  H         3.0928687780       11.8716945396       23.2700384987
  H         5.3032073263        8.8214351701       22.1342936791
  H         8.1409809568       13.9635466894       20.8556631526
  H        15.0649892743        9.7581153388       22.3410376194
  H         8.5686016274       17.8933575869       22.9019632044
  H         1.0350514013       16.0566304178       22.5938898411
  H        12.6935297951       20.5045329857       23.7011617282
  H         0.4366256368       15.3540474699       23.8842447128
  H         3.1841048926        8.5914905704       21.7565670306
  H        16.4608876432       13.2523635524       23.3099896838
  H        11.8466582280       11.7381264280       22.9840819079
  H         3.7234334049        0.3264580655       22.2961615194
  H         8.4144831848        2.2180722829       23.2477538747
  H        11.7924893291        8.9609255238       23.4683917118
  H        10.6203557409        7.9450489476       23.7675160796
  H         6.7488185761       13.7436350890       23.0410034068
  H         7.3087525676       12.3137211715       23.1325170483
  H        12.7414093686       11.2661992471       23.9660295840
  H        13.8734335753       13.9138832173       21.4689214607
  H         8.4804846393       19.0772868449       23.7822853948
  H        13.6295399828        6.0833617367       23.5110598253
  H         8.7276353874       14.7305410161       19.6788029447
  H         4.6907144219       12.0380720803       23.7119078693
  H        -0.4990053829       12.6209273049       21.3051421790
  H         3.5626558448        8.0272252675       20.2959777771
  H         9.3446888151        3.1261392882       24.1027065624
  C         6.2408627961        3.9695221002        9.2817491248
  C         7.4339869410        4.7374410340        9.4686079690
  C         5.0431693279        4.6946373075        9.2805535245
  C         7.4112957932        6.1520991464        9.3991637323
  C         6.2253290414        6.8217129776        9.3449265520
  C         5.0137103334        6.0838374021        9.3271690007
  C         3.7163637872        6.7411915337        9.2401332350
  K        11.1675208657       -0.4426367989        9.8461237530
  K         0.3464316979        1.7371494180       11.4756167333
  K        -0.9594841478        9.1018555811       10.7382792380
  K         4.3476425491       10.9725048724        9.3427078615
