      468
999
 Cu         0.0000000000        0.0000000000        0.0000000000
 Cu         0.0000000000        4.4270557290        0.0000000000
 Cu         0.0000000000        8.8542442710        0.0000000000
 Cu         1.2779405470        2.2135942710        0.0000000000
 Cu         1.2779405470        6.6406500000        0.0000000000
 Cu         1.2779405470       11.0677057290        0.0000000000
 Cu         2.5560344530        0.0000000000        0.0000000000
 Cu         2.5560344530        4.4270557290        0.0000000000
 Cu         2.5560344530        8.8542442710        0.0000000000
 Cu         3.8339750000        2.2135942710        0.0000000000
 Cu         3.8339750000        6.6406500000        0.0000000000
 Cu         3.8339750000       11.0677057290        0.0000000000
 Cu         5.1119155470        0.0000000000        0.0000000000
 Cu         5.1119155470        4.4270557290        0.0000000000
 Cu         5.1119155470        8.8542442710        0.0000000000
 Cu         6.3900094530        2.2135942710        0.0000000000
 Cu         6.3900094530        6.6406500000        0.0000000000
 Cu         6.3900094530       11.0677057290        0.0000000000
 Cu         7.6679500000        0.0000000000        0.0000000000
 Cu         7.6679500000        4.4270557290        0.0000000000
 Cu         7.6679500000        8.8542442710        0.0000000000
 Cu         8.9458905470        2.2135942710        0.0000000000
 Cu         8.9458905470        6.6406500000        0.0000000000
 Cu         8.9458905470       11.0677057290        0.0000000000
 Cu        10.2239844530        0.0000000000        0.0000000000
 Cu        10.2239844530        4.4270557290        0.0000000000
 Cu        10.2239844530        8.8542442710        0.0000000000
 Cu        11.5019250000        2.2135942710        0.0000000000
 Cu        11.5019250000        6.6406500000        0.0000000000
 Cu        11.5019250000       11.0677057290        0.0000000000
 Cu        12.7798655470        0.0000000000        0.0000000000
 Cu        12.7798655470        4.4270557290        0.0000000000
 Cu        12.7798655470        8.8542442710        0.0000000000
 Cu        14.0579594530        2.2135942710        0.0000000000
 Cu        14.0579594530        6.6406500000        0.0000000000
 Cu        14.0579594530       11.0677057290        0.0000000000
 Cu         0.0000000000        2.9513704860        2.0869457760
 Cu         0.0000000000        7.3785590280        2.0869457760
 Cu         0.0000000000       11.8056147570        2.0869457760
 Cu         1.2779405470        0.7379090280        2.0869457760
 Cu         1.2779405470        5.1649647570        2.0869457760
 Cu         1.2779405470        9.5920204860        2.0869457760
 Cu         2.5560344530        2.9513704860        2.0869457760
 Cu         2.5560344530        7.3785590280        2.0869457760
 Cu         2.5560344530       11.8056147570        2.0869457760
 Cu         3.8339750000        0.7379090280        2.0869457760
 Cu         3.8339750000        5.1649647570        2.0869457760
 Cu         3.8339750000        9.5920204860        2.0869457760
 Cu         5.1119155470        2.9513704860        2.0869457760
 Cu         5.1119155470        7.3785590280        2.0869457760
 Cu         5.1119155470       11.8056147570        2.0869457760
 Cu         6.3900094530        0.7379090280        2.0869457760
 Cu         6.3900094530        5.1649647570        2.0869457760
 Cu         6.3900094530        9.5920204860        2.0869457760
 Cu         7.6679500000        2.9513704860        2.0869457760
 Cu         7.6679500000        7.3785590280        2.0869457760
 Cu         7.6679500000       11.8056147570        2.0869457760
 Cu         8.9458905470        0.7379090280        2.0869457760
 Cu         8.9458905470        5.1649647570        2.0869457760
 Cu         8.9458905470        9.5920204860        2.0869457760
 Cu        10.2239844530        2.9513704860        2.0869457760
 Cu        10.2239844530        7.3785590280        2.0869457760
 Cu        10.2239844530       11.8056147570        2.0869457760
 Cu        11.5019250000        0.7379090280        2.0869457760
 Cu        11.5019250000        5.1649647570        2.0869457760
 Cu        11.5019250000        9.5920204860        2.0869457760
 Cu        12.7798655470        2.9513704860        2.0869457760
 Cu        12.7798655470        7.3785590280        2.0869457760
 Cu        12.7798655470       11.8056147570        2.0869457760
 Cu        14.0579594530        0.7379090280        2.0869457760
 Cu        14.0579594530        5.1649647570        2.0869457760
 Cu        14.0579594530        9.5920204860        2.0869457760
 Cu         5.0886812412        1.4856992372        4.0910682672
 Cu         3.7558098408        3.7118117752        4.0425557195
 Cu         6.4087059296       12.5240983243        4.1187561931
 Cu         2.4672559794        6.0324466963        4.0494729977
 Cu         3.8246392934       12.5225044278        4.0400660872
 Cu        11.5540669050        3.7546939712        4.0818789826
 Cu         2.5537150918       10.2686702448        4.0967471500
 Cu         1.2604886438       12.5312618622        4.0886653863
 Cu         5.1458690084       10.3155348524        4.1596476032
 Cu        12.7955735251        5.8968155682        4.1126749814
 Cu        10.1767022494        1.5279164623        4.1372951527
 Cu         2.6040414664        1.4963408272        4.1111289294
 Cu        13.9957664349        8.1737972559        4.1465063507
 Cu        12.7605303856       10.4312055662        4.1488024857
 Cu         7.6240107066       10.4021843088        4.2234459258
 Cu         3.8163425582        8.1387070342        4.1778953433
 Cu        12.7048987865        1.4595821931        4.0875007081
 Cu         7.6365525816        1.5096248963        4.1484404512
 Cu         8.9495342375        8.2215765509        4.2098365360
 Cu        11.3874254028       12.5793212670        4.1329905246
 Cu         8.9228380296       12.5728865588        4.1352035725
 Cu        -0.0885408858        5.9189186208        4.1669363310
 Cu        11.4933953348        8.1044840249        4.1819246711
 Cu         6.3985812003        8.1484777037        4.1115238544
 Cu         6.3604926518        3.7021364753        4.1466707745
 Cu         1.2492670364        8.1229495994        4.1421906778
 Cu        10.2443217746       10.3531901244        4.1644874547
 Cu         5.1535192015        5.9825158105        4.0683078570
 Cu        10.2885101927        5.9757708913        4.1882753242
 Cu        14.0876328310        3.6788679482        4.1720057007
 Cu        14.0718443557       12.6561406325        4.1541657169
 Cu         0.0061862479        1.5064297700        4.1498062400
 Cu         1.2848001100        3.6654054099        4.1497543181
 Cu        -0.1149721522       10.3744764754        4.1612789875
 Cu         8.8943122645        3.7066744599        4.1759762243
 Cu         7.7742635852        5.9583977018        4.1190024670
 Cu         3.8489610823        2.3267801935        6.2014635440
 Cu         5.1135844903        0.0935386967        6.1744062288
 Cu        12.7191458532        8.9704194606        6.1151935748
 Cu         5.1892730271        4.5220862968        6.1409624602
 Cu        11.5326156784        2.2869578649        6.1529225415
 Cu         9.0490079052        6.6595337211        6.2902486489
 Cu         3.8537662376       11.0934575708        6.1168627013
 Cu        12.7802921903        4.5010216075        6.3166996070
 Cu         6.3946578653       11.2091115914        6.3261865777
 Cu         2.6214353199        8.8319046369        6.3909585658
 Cu         1.2895497065       11.0321600994        6.1843434764
 Cu         7.6733259954        0.0869578481        6.3547636876
 Cu         6.5584203277        6.7276715673        6.1232629827
 Cu         6.3790329904        2.3031273667        6.1603418948
 Cu         3.9460837309        6.7246268699        6.2052509465
 Cu         2.6384231721        4.6222983781        6.1844508347
 Cu         0.0626531453        0.0052386532        6.3027881810
 Cu        11.5525927882       11.1727579588        6.2482474311
 Cu        10.2777876389        4.4635926605        6.1428475753
 Cu         7.7279059604        8.9855529532        6.3395975782
 Cu         2.5818570359        0.1057258551        6.1271382108
 Cu         5.2050917527        8.9574961612        6.3386951554
 Cu         1.2884581755        6.6808681465        6.2278371233
 Cu         8.9419726900        2.2142843338        6.2357524695
 Cu        12.7899034826        0.1350227248        6.2073300184
 Cu        14.0459604148        6.6023588452        6.3283444152
 Cu        10.2302295142        0.1332708719        6.2160912510
 Cu        10.2564091101        8.9283273262        6.3151942286
 Cu         8.9912954099       11.1724873381        6.2562645327
 Cu        11.5595206479        6.6287656162        6.2205043446
 Cu        14.0372732064        2.3431139237        6.2224959390
 Cu         7.7614833489        4.5157174941        6.1648509309
 Cu        -0.0062702261        8.8503778279        6.3580506848
 Cu         1.3038404444        2.2291083093        6.2649507752
 Cu        14.0601717864       11.1287047249        6.2521988719
 Cu         0.0379203321        4.4305578163        6.2437410856
  O         3.8615027811       14.4989462998        9.4779355665
  O         2.5743054106       12.2531874973        9.1208858191
  O         9.0774412741       13.4536560343        9.6164821308
  O         0.3884766632        1.1790133807        9.8676280509
  O        -0.9431074573        4.5712441637        9.3522608920
  O        -0.1075884755        7.9981021339        9.5571257360
  O        10.8142201603        3.6153593762        9.0705485408
  O        12.7597749064       12.6375650793        9.4877174611
  O         4.9889770526       10.5568950722        9.8332324123
  O        13.0559704995        4.6302478517       11.6467288207
  O        12.3185859714        7.5538022712        9.0793466685
  O         4.5142059677        2.5990626488       11.9834653951
  O        -1.3668948886       14.7235199494       12.8030106395
  O         7.3233071038        2.6608814430       11.2952390297
  O        10.1464599842        2.6220874449       14.1456544868
  O         1.1944868259        9.3578006098       11.6329875763
  O         2.7818133606       11.4619207700       11.9375110475
  O         5.3462921131       11.9914011328       12.6334731083
  O         1.9304621964        5.8634107140        9.4939534047
  O         8.2759119453        3.4159479971        8.9793429814
  O        10.4852509753       11.0085336207        9.4003673992
  O        -1.0465077369       11.9175938175       12.1918049992
  O         5.5965364573        6.8368801429       12.5026417747
  O        10.1401427118       13.9643409995       12.1195391467
  O         3.6160164039        5.2983853104       11.7263372960
  O         6.7935573360        9.6182534119       13.2774350090
  O         4.2579772837       13.9947651640       14.5564355743
  O         2.2238445768        4.1986020241       13.8209558548
  O        -1.6827566892        5.3704995888       14.0959305527
  O        12.6145353738        9.1675159492       11.1574387442
  O         8.8424851544       10.7716900103       11.6155127526
  O         1.4704005434        9.2175435008       14.7806543723
  O         8.4273734552        1.8676307531       15.8997668715
  O         1.5034289501       13.4206289965       13.1785112153
  O        -3.8847417594       11.8902299852       12.9059612942
  O         8.7497476801        4.2539810331       12.8289985286
  O         6.2563314381        3.6345675311       16.5505598476
  O         6.9836817853        5.2660437655       14.6381332468
  O         7.8196919432       12.8937476433       14.0853624358
  O        10.7535537731        5.4741361095       10.9206977986
  O        12.7993268074        2.9002975378       14.8251235548
  O         4.4349745673        6.3216647741       15.6059273322
  O         5.7303039819       10.4075647691       16.0430366041
  O         6.4290863512       17.2155029716       19.0519175072
  O        14.1014052102        9.8219320054       14.1633662816
  O        -1.0964008783        1.6322708717       17.2113493967
  O         3.6348011538        3.6325329304       16.1866066004
  O         5.3107998904       13.1169793317       16.8759045666
  O         1.0143609145        6.4499106598       14.4175921714
  O         0.4500931769        5.9679048473       16.9652474689
  O         3.0337928036        9.7675675794       16.9258717671
  O        12.2803044142        7.6474846269       14.9374510542
  O         9.0230834732       10.9443357313       16.0206887539
  O         0.1451297978       12.7875082829       15.7637165554
  O        10.0777162417       14.6695227361       18.6648972065
  O        -2.1716174293       11.5253422588       16.1473607852
  O         1.0738280488        3.4694447991       17.8426119167
  O         6.0870844788        7.7150821482       17.4040410865
  O        12.7725740406        2.1846294985       19.4459029585
  O         6.4344525756       13.1112816230       19.1619563890
  O        10.9302831628       12.7556742490       15.7313563740
  O        10.0870102517        8.9651215123       14.3031595511
  O         7.6365633520        6.0380118700       20.2820859399
  O         2.4569650622       12.0824038602       17.8510205481
  O         4.3687174690        4.7328470895       20.7931389125
  O         8.7621137825        7.1896360150       16.0920539992
  O        10.5560582179        8.2059295203       18.8075880397
  O         2.6962255611        7.4925712782       18.3782490845
  O         4.6433820747        7.2352071867       20.0432355850
  O        13.5451777506        6.7453972591       18.4338592228
  O        -2.7450060208       10.1780167965       18.5450037288
  O         1.8632273795        3.5292996007       20.9329365543
  O         2.3711294563       12.3151592772       20.4420931057
  O         8.0889240475       10.9164888286       18.4486857516
  O        -0.6798765733        3.9050741716       22.4467042957
  O         4.9871695839       11.6183569720       20.9012727282
  O         2.0367954625        5.7874891370       23.1731529078
  O         7.8327774775       15.0802624442       20.3570163597
  O        10.2373401302        5.5087410895       20.6666161752
  O         8.0039468354        8.7188660421       19.8811853636
  O        -0.4397117094       10.2698217034       20.0172547453
  O        10.4960064150       11.6833640095       19.0288265215
  O         6.8366762527        9.6834345499       22.0111646560
  O         4.2005130890       15.8518757154       24.0598179641
  O         0.0132601183        7.6490709274       22.4272120969
  O        12.8720380701        4.7147229160       20.3728265717
  O        13.2027602745       14.1911455537       21.8903015086
  O         6.4831868441        5.1381779042       22.4739497550
  O         9.5386450038       12.0395560455       21.8076380192
  O        15.7827297267        7.8542260239       19.7184207157
  O         2.7557893684        1.2987545308       22.1168415108
  O         0.9162190530       12.9733483566       23.2930520534
  O        17.0383193480       10.0281345138       22.9689206365
  O         9.3790226475       17.2746450630       23.0084510678
  O        12.7598369257        6.8981123523       22.7030116612
  O         3.5962087279        8.0878737481       22.2825224736
  O         5.9526867444        7.5715499550       23.3737257055
  O         7.0834395921       15.4087272579       23.0095281956
  O        10.8121500239        1.5162183999       22.9846582600
  O        10.8353444286       10.2674222893       23.2372713601
  O        10.2364545039        7.6110250806       22.5883452554
  O         6.2736115103       12.2548106979       23.3873388200
  O        -1.9699475845       10.9204845793       22.2183020730
  H         4.2039002133        1.6804458378        8.6531654326
  H         9.0654410620       14.0962119446        8.8252745693
  H         2.9638209704       11.8420714802        8.3005606946
  H        -1.4916278216        5.3254958783        8.9661183952
  H         9.8127940601        3.4880552266        8.9268470176
  H         0.7129690072        7.7805727136        9.0820831046
  H         0.3245629304        1.4138788255        8.8814047529
  H         6.2164381456        5.0989232852        8.7029713569
  H         8.6672692379        5.6794739171        9.3604265982
  H         4.4971017951        6.9309819082        8.9007589871
  H         9.2811573359        8.0433171688        9.5747613530
  H        16.5406821972       13.8795353506        9.9172521654
  H         3.2951507445       13.6367028735        9.2429100580
  H         7.5338602350        9.7830021436        9.8633585551
  H         3.7952616056        9.0734776167        9.1979611754
  H         9.7307973235       12.7534429598        9.3616028179
  H        -0.9343298863        7.7023584575        9.0887743158
  H        -2.4387836968       12.7424186292        8.4867936495
  H        11.1651670264        3.8791548422        8.1882956392
  H        -0.0014376181        4.9139762863        9.1872343531
  H         3.0105196629       11.8208603848        9.9272035375
  H        -2.9996068297        5.1261184034       11.1931525929
  H        12.2375363441        8.1477626107        8.2877364765
  H        13.8476771631        4.6623109404       11.0186263371
  H         4.4225385122        2.1473882832       11.1312150142
  H        -1.8303742160       15.1355590714       13.5528716723
  H         0.6717273038        8.7192154832       11.0624424758
  H        11.0204701208        2.7699933407       14.6337722950
  H         6.4040143112        2.6328984187       11.6462659346
  H        12.0081861235       12.0521582247        9.5020699820
  H         4.3969018581       11.8864357609       12.3821033164
  H        10.2086677781       10.8874601778        8.4337231297
  H         9.7958608463       10.7723643671       10.1252597135
  H         7.9731261371        3.0509556195       11.9081457602
  H         4.3358753208        3.5810034191       11.8430571165
  H         2.4685565564        5.4087683466        8.7958795555
  H        12.3571975629        8.1125178760        9.9085434670
  H         6.4234705796        6.5998169676       12.0324202636
  H        -1.3036559399       13.7730425510       12.9814507445
  H         8.1667815500        2.6789466434        8.3305859977
  H         2.1729486577       10.7515032734       11.6425012640
  H         9.3970646649        2.5205051598       14.7933499898
  H         5.4110345536       12.6529810391       13.3396221655
  H         2.4880319734        5.7631595727       10.2935580458
  H         4.5451407690       14.8564950871       14.2898412121
  H         2.2311056346       12.0052611407       12.5205343027
  H         6.1766843248       10.3584013204       13.0009161303
  H         9.9169466701        1.6782108765       12.3555266068
  H        -2.1434126940        5.3030087041       13.2310414192
  H         1.0545222715        9.0696702041       12.5422269967
  H         6.3257261139        8.7333664987       13.1251571434
  H         2.9521011934        3.8470885006       14.4086254189
  H        -2.0492751616       11.8228067607       12.4463795345
  H         1.7312760439        4.8920357355       14.2732482200
  H         4.3680773277        5.9694585505       11.8946875225
  H         8.1642262594       10.1517050143       11.9834271275
  H         7.8848932981        3.1671508228        9.8791061418
  H         9.7517352412       13.7019781188       11.1836920419
  H        -0.6484565894       11.3144976855       12.8951840016
  H        -2.2365799196        6.0098331855       14.6745427437
  H         5.8097409004        6.4685896054       13.3929262098
  H         8.1926965060        1.0726362560       15.3486046275
  H         3.0685826588        5.1006061775       12.5141277222
  H        11.9689215545        9.9327308290       11.0440191366
  H         4.6085690737       13.8172540773       15.5176608753
  H        11.2109629551       12.8454952470       12.5843709462
  H         1.4800444950        8.2535520613       14.8732266076
  H         8.6840460082       12.9378229965       13.5486488241
  H        10.7567098808        4.7583706758       10.0563412708
  H        12.3836650902        8.9012999718       12.0820138668
  H         2.2842199312       13.6768730726       13.7528041047
  H         9.6549622947       10.6948232055       12.2214103434
  H         5.2172113962        6.6051043393       16.2059956017
  H        -4.0276928785       11.9498751980       13.8669222562
  H        13.2245762237        3.7739368477       14.7595408874
  H         4.8094076043       10.2553799201       16.4123236305
  H         9.4889209728        3.7353551221       13.2935773773
  H         7.4388729945        5.8275847256       15.3064649416
  H         6.5229629521        4.2970058361       15.8230679267
  H         7.5476960153        2.3948220249       15.9526352772
  H         2.0479202721        9.6029555333       15.5840401260
  H         9.2788617584        4.7516532169       12.1676761273
  H        13.1263654295        2.4756392691       15.6921126382
  H        -1.5453491645        1.5242556091       18.0623547962
  H         7.6928851764        4.9040901986       14.0335944595
  H         7.9333713727       12.0791915861       14.6183388963
  H         0.7121907047       13.2277476403       13.7671674038
  H         3.6030586104        6.8505630047       15.8370009202
  H         5.2545680007        3.4286297014       16.5288666249
  H         5.6197822232       13.4390261049       17.7462090134
  H        10.9795467833        6.3801638676       10.5148783948
  H        -0.3265992444        9.5236313865       14.3509580465
  H         5.7227833015       10.2188427547       15.0583607401
  H         3.8405036200        4.6479190742       16.1168448040
  H         8.5831992786       10.6333881810       16.8265514860
  H         6.4305481447       16.8801080742       18.0801030066
  H        -0.6761271838       12.2695833601       15.9757783398
  H         6.7199202254       16.4869791311       19.6038592211
  H        15.4799745456        6.1596053712       14.0683108110
  H        -1.6014861649       10.4572434974       14.8842006414
  H        12.8753804705        8.4135750374       14.7258739908
  H         1.1842689126        6.5700991269       17.4950877321
  H        -0.7022553775        0.7822437307       16.8361922059
  H         0.8577616541        6.2752418822       15.3650808610
  H         5.7535329395       12.2381430639       16.6340792247
  H         2.8658287660        8.9173181487       17.4663926146
  H         0.3662992799        2.7538848529       17.7475274195
  H         2.8725186302        3.4858990995       16.8163408931
  H         6.0899252741        8.6405892087       16.8806247249
  H        11.8315145464        2.0510715912       19.1399370533
  H         9.6101462553       14.9905285350       19.5082565862
  H         9.3638464709       10.1356796845       15.5350115571
  H         0.6429153547        4.2473448731       17.4673280766
  H         2.6858029964       10.6404010186       17.3859222794
  H        10.9350019204        8.5089788165       14.5916371704
  H        12.3802558348       12.1171486178       16.0134620397
  H        -0.3715035526        6.2582447956       17.4322427169
  H         0.8597516182       12.7099778065       16.4496282976
  H         9.5852446644        1.7710931934       17.9073907409
  H        12.4147640396        7.5163327148       15.8664069670
  H         3.3972306948       12.4567494100       17.7640986382
  H         7.0921316754       12.4204557176       18.8292262817
  H        10.7578419760       13.4568592603       16.3226417132
  H         5.1072440347        4.6514797143       21.4610886855
  H        10.2207444182       12.0518062857       15.8920250654
  H         7.1888833615        5.3400974267       19.7307169602
  H         5.9473241344        7.8466021546       18.3511707409
  H        -2.3087086468       10.9707528101       16.9404785990
  H         8.2213079249        7.6593213795       16.7301344782
  H         9.3751850987        8.3643401115       14.5544193900
  H         4.7791999677        4.1173783347       20.0841433683
  H        12.9214336859        3.1646820791       19.6969688113
  H         9.5229215904        7.0335590662       16.6426329509
  H         5.8399341276       12.5549989348       19.8076854490
  H         4.5674866664        6.2517836778       20.2660113419
  H         1.6024542188        3.5048375413       19.9500764162
  H         2.3538785249       12.3758821262       18.7890993692
  H        11.1418958285        7.4626996559       19.2496016721
  H         4.3982714664        7.6444136094       20.8914363352
  H         3.5011400886        7.4236530667       18.9886636028
  H         8.6286366788        5.8628488757       20.4331328471
  H        12.1512827119        9.3752680419       18.9154688511
  H        -0.9872369944        7.2011110930       18.9105964346
  H         7.8956860165       10.1788064862       18.9874869291
  H         9.8063209819        8.3554342376       19.4073691979
  H         1.9177417558        7.6521929892       19.0436382168
  H         2.3011241008        5.5655782103       24.1165659440
  H        -0.8426107289       17.5963937160       23.3241338060
  H         5.3371376640       10.8181541449       20.5387756299
  H        -1.9144927887       10.3126804731       19.1014174841
  H         0.2466390433        3.9805722278       22.1643394790
  H         3.3040870802       12.0359887201       20.8583370309
  H        13.2496660807        5.9757569578       18.9545972951
  H         2.6718458786        4.0232104617       20.8677431932
  H         6.3858574220        8.9402485500       22.5067912878
  H         7.5593052229        1.9093581125       21.2773181259
  H         2.3041528731       13.2709161954       20.8160966291
  H        11.3374735712       11.2819102826       18.7172429173
  H         1.2201073527        6.3009626173       23.3365507281
  H         9.0689041652       11.0781784021       18.6131439235
  H         7.7428015396        9.0975306578       20.7907408096
  H         7.1775092909       10.4201855492       22.5640292758
  H        10.3806805998        6.3992778200       21.1347153896
  H         3.9857658450        3.5470864042       23.8583139435
  H        10.0078671376        4.9675225648       21.4715961519
  H        10.4611140527       12.6791548191       19.0260042725
  H        -2.3649153659       14.6160828458       20.9434217280
  H         5.4732723299       11.7049738696       21.7709432431
  H        11.8771733719        4.7988035747       20.5513455970
  H         7.1107002761        4.5257071869       22.8824953645
  H        -0.7780008048       10.3492932723       20.9633603322
  H         9.9008131692       11.8955371414       20.8854412955
  H         7.5282763286       14.1860763756       20.0678551641
  H         0.2674447416       10.9617343417       19.9749665080
  H         7.4866066420        7.8472000190       19.7648778762
  H         2.3581096254        2.0460547486       21.6175911462
  H         3.5930720264        2.0304326149       23.3900483227
  H         9.9187447658       13.0082861166       21.9662642827
  H        -0.9534907574        7.3670284952       22.4655125152
  H         0.0833294834        8.5715061799       22.6494531943
  H        13.3555299315        4.6939288093       21.2741198886
  H        13.8733255742       14.7533489668       22.3531162991
  H        16.8730349731        9.9835152246       23.9825593287
  H        15.5633171395        8.8014425174       19.7377664771
  H         6.1971282614        7.8021435461       24.3788493196
  H         7.1155463870        5.5209880623       21.7626622806
  H         6.1458176361       15.6690316512       23.2820647865
  H        15.8475659074        7.7742096532       20.7620441871
  H         9.8299147977       16.3479194343       22.9896754313
  H         1.4648933558       12.1522244688       23.1250489678
  H        11.9472582015       20.6576924858       22.3641684497
  H         0.9408006897       13.0193549389       24.2606830693
  H         4.4091458008        7.6903292258       22.7251529048
  H        17.8979759665        9.6300145399       22.8309819780
  H        10.2745420686       11.0402963235       22.8705579905
  H         1.9398006761        0.8679078855       22.5588780547
  H        10.7044084103        1.2607185772       23.9061141982
  H        10.0553655050        7.2685479827       23.4676162999
  H        10.2717739752        8.5721381838       22.5680794974
  H         6.6661704936       13.2030603816       23.3447009230
  H         5.6370981022       12.3050773363       24.0950734505
  H        10.6944364674       10.1296541110       24.2445289122
  H        13.3787549740       11.9034315894       22.4115178972
  H         9.7704498890       17.6809425877       23.7597515386
  H        12.7149237474        6.9475607172       23.7012839087
  H         7.6716825238       15.7290643754       23.7637776522
  H         6.2720377225        6.6009415840       23.2371417715
  H        -2.7567233170       10.6284811587       22.6568651823
  H         2.8835247253        7.4532705602       22.4634383022
  H        11.7162995866        1.3018319907       22.6996619217
  C         6.5340603974        6.0907005697        8.9792935080
  C         7.8618267117        6.4578414306        9.3711107309
  C         5.5272069909        7.1158376256        9.0139324715
  C         8.1806304223        7.7382771336        9.7260491729
  C         7.2364973434        8.7546963994        9.7031901516
  C         5.8536736598        8.3626676710        9.5512463886
  C         4.8026458413        9.3476655365        9.5153754713
  K        12.8251673314        1.9164567417       10.1379468261
  K         0.8463994101        2.7305049984       12.0316790946
  K        -0.2853855866       11.1747285034        9.5621455151
  K         6.2474792032       12.8953299720        9.9265418898
