      468
3999
 Cu         0.0000000000        0.0000000000        0.0000000000
 Cu         0.0000000000        4.4270557290        0.0000000000
 Cu         0.0000000000        8.8542442710        0.0000000000
 Cu         1.2779405470        2.2135942710        0.0000000000
 Cu         1.2779405470        6.6406500000        0.0000000000
 Cu         1.2779405470       11.0677057290        0.0000000000
 Cu         2.5560344530        0.0000000000        0.0000000000
 Cu         2.5560344530        4.4270557290        0.0000000000
 Cu         2.5560344530        8.8542442710        0.0000000000
 Cu         3.8339750000        2.2135942710        0.0000000000
 Cu         3.8339750000        6.6406500000        0.0000000000
 Cu         3.8339750000       11.0677057290        0.0000000000
 Cu         5.1119155470        0.0000000000        0.0000000000
 Cu         5.1119155470        4.4270557290        0.0000000000
 Cu         5.1119155470        8.8542442710        0.0000000000
 Cu         6.3900094530        2.2135942710        0.0000000000
 Cu         6.3900094530        6.6406500000        0.0000000000
 Cu         6.3900094530       11.0677057290        0.0000000000
 Cu         7.6679500000        0.0000000000        0.0000000000
 Cu         7.6679500000        4.4270557290        0.0000000000
 Cu         7.6679500000        8.8542442710        0.0000000000
 Cu         8.9458905470        2.2135942710        0.0000000000
 Cu         8.9458905470        6.6406500000        0.0000000000
 Cu         8.9458905470       11.0677057290        0.0000000000
 Cu        10.2239844530        0.0000000000        0.0000000000
 Cu        10.2239844530        4.4270557290        0.0000000000
 Cu        10.2239844530        8.8542442710        0.0000000000
 Cu        11.5019250000        2.2135942710        0.0000000000
 Cu        11.5019250000        6.6406500000        0.0000000000
 Cu        11.5019250000       11.0677057290        0.0000000000
 Cu        12.7798655470        0.0000000000        0.0000000000
 Cu        12.7798655470        4.4270557290        0.0000000000
 Cu        12.7798655470        8.8542442710        0.0000000000
 Cu        14.0579594530        2.2135942710        0.0000000000
 Cu        14.0579594530        6.6406500000        0.0000000000
 Cu        14.0579594530       11.0677057290        0.0000000000
 Cu         0.0000000000        2.9513704860        2.0869457760
 Cu         0.0000000000        7.3785590280        2.0869457760
 Cu         0.0000000000       11.8056147570        2.0869457760
 Cu         1.2779405470        0.7379090280        2.0869457760
 Cu         1.2779405470        5.1649647570        2.0869457760
 Cu         1.2779405470        9.5920204860        2.0869457760
 Cu         2.5560344530        2.9513704860        2.0869457760
 Cu         2.5560344530        7.3785590280        2.0869457760
 Cu         2.5560344530       11.8056147570        2.0869457760
 Cu         3.8339750000        0.7379090280        2.0869457760
 Cu         3.8339750000        5.1649647570        2.0869457760
 Cu         3.8339750000        9.5920204860        2.0869457760
 Cu         5.1119155470        2.9513704860        2.0869457760
 Cu         5.1119155470        7.3785590280        2.0869457760
 Cu         5.1119155470       11.8056147570        2.0869457760
 Cu         6.3900094530        0.7379090280        2.0869457760
 Cu         6.3900094530        5.1649647570        2.0869457760
 Cu         6.3900094530        9.5920204860        2.0869457760
 Cu         7.6679500000        2.9513704860        2.0869457760
 Cu         7.6679500000        7.3785590280        2.0869457760
 Cu         7.6679500000       11.8056147570        2.0869457760
 Cu         8.9458905470        0.7379090280        2.0869457760
 Cu         8.9458905470        5.1649647570        2.0869457760
 Cu         8.9458905470        9.5920204860        2.0869457760
 Cu        10.2239844530        2.9513704860        2.0869457760
 Cu        10.2239844530        7.3785590280        2.0869457760
 Cu        10.2239844530       11.8056147570        2.0869457760
 Cu        11.5019250000        0.7379090280        2.0869457760
 Cu        11.5019250000        5.1649647570        2.0869457760
 Cu        11.5019250000        9.5920204860        2.0869457760
 Cu        12.7798655470        2.9513704860        2.0869457760
 Cu        12.7798655470        7.3785590280        2.0869457760
 Cu        12.7798655470       11.8056147570        2.0869457760
 Cu        14.0579594530        0.7379090280        2.0869457760
 Cu        14.0579594530        5.1649647570        2.0869457760
 Cu        14.0579594530        9.5920204860        2.0869457760
 Cu         5.0980906393        1.5064488468        4.0861301306
 Cu         3.8410608872        3.7162159769        4.0866965296
 Cu         6.3821299537       12.5614864822        4.1578944873
 Cu         2.7117083614        5.9230686388        4.0363652049
 Cu         3.9048211656       12.5043322618        4.0950465621
 Cu        11.5362237902        3.7518528089        4.1067695099
 Cu         2.4468265228       10.4069002364        4.0944607182
 Cu         1.2656878296       12.5736306836        4.1110572863
 Cu         5.1736872167       10.3093066491        4.0911144435
 Cu        12.8416024487        5.8416652932        4.0971538662
 Cu        10.2273172263        1.4769686879        4.1217682546
 Cu         2.6315184372        1.5054719392        4.1555345806
 Cu        14.1019026826        8.1905499961        4.1472567446
 Cu        12.6892649705       10.3630261197        4.1795391057
 Cu         7.6381067133       10.3846892378        4.0804213623
 Cu         3.7542057541        8.2240092921        4.1274737909
 Cu        12.7551681316        1.4922634393        4.1748299174
 Cu         7.7299748161        1.4060807819        4.0858553855
 Cu         8.9441880874        8.1949699774        4.1863673150
 Cu        11.4508190483       12.5115871806        4.2120010124
 Cu         8.9885327920       12.5596183737        4.1546126581
 Cu         0.0051838550        5.8703139154        4.1443805121
 Cu        11.4794152385        8.1360708466        4.1838777541
 Cu         6.3950255053        8.0965217438        4.0853671410
 Cu         6.4161793418        3.6856622599        4.1949537836
 Cu         1.3600788869        8.1382896488        4.1082918652
 Cu        10.1295602035       10.3471811644        4.2049253662
 Cu         5.1014784200        5.9083353021        4.1245376933
 Cu        10.2018073551        5.9104091675        4.1817371378
 Cu        14.0706669183        3.6203982169        4.0957300805
 Cu        14.0290722498       12.6611963155        4.1543940471
 Cu         0.0497602454        1.5391820198        4.1441039453
 Cu         1.2898407813        3.7481261725        4.2023018010
 Cu        -0.0426925660       10.3930048923        4.1391898249
 Cu         8.9601380333        3.7000962543        4.1452855094
 Cu         7.7323154911        5.9016663593        4.1485553567
 Cu         3.9042893397        2.2945806549        6.1343327435
 Cu         5.0303589663        0.0093490904        6.0988177105
 Cu        12.7362945766        8.9105009670        6.2243735566
 Cu         5.1931438190        4.3866257387        6.2592052847
 Cu        11.5305570434        2.2812254231        6.2282630251
 Cu         9.0222354748        6.6035557529        6.3262980075
 Cu         3.7983186222       10.9631278174        6.1368324827
 Cu        12.8839019749        4.5731763896        6.2348577068
 Cu         6.3656400614       11.1376367072        6.2474165473
 Cu         2.4948897248        8.9519984848        6.2892881873
 Cu         1.2626816986       11.0891827331        6.3074430540
 Cu         7.7720563786        0.0283750084        6.2391288715
 Cu         6.4741225741        6.6839268023        6.0702446319
 Cu         6.4274073593        2.1775694874        6.2022157985
 Cu         3.8496283887        6.6989334081        6.1871282390
 Cu         2.5844953891        4.5289115600        6.1661430888
 Cu         0.0330569034        0.0648602950        6.0623781706
 Cu        11.4272224883       11.0355333801        6.4131360343
 Cu        10.3455700937        4.4950656908        6.2246303513
 Cu         7.6353924386        8.9148770785        6.2340676635
 Cu         2.6016234538        0.0283744989        6.1789571261
 Cu         5.1231173515        8.8933464689        6.1145028404
 Cu         1.2973662784        6.5711653457        6.2327486420
 Cu         9.1224617944        2.1768549578        6.2597751486
 Cu        12.7908696390        0.0630781138        6.2825853478
 Cu        14.0055938404        6.7071506760        6.2451634635
 Cu        10.2856795666       -0.0576641835        6.2324529882
 Cu        10.1330655780        8.9445149871        6.2795500670
 Cu         8.9199474367       11.1546391781        6.1478925380
 Cu        11.5797704670        6.7574731001        6.2300682146
 Cu        14.0623446534        2.3721235284        6.2441451250
 Cu         7.7108190199        4.4325525655        6.2401281688
 Cu        -0.0004393567        8.8514447135        6.2508207619
 Cu         1.3693425471        2.2413652193        6.2795015402
 Cu        14.1384001437       11.1612337876        6.2822646861
 Cu        -0.0359706090        4.3943801047        6.3240265204
  O         3.1520836795       13.9733466673        9.5839528378
  O         2.1465652448       11.3187056107        9.4244299127
  O         8.4347633478        9.8386743905        9.1725178782
  O        -0.5542206953        0.0028311313        9.2079532694
  O        -1.6551938709        3.1313004622        9.1753945263
  O         0.8598176143        5.9649699662        9.5390128506
  O         9.7059620884        3.4787562604        9.6746562707
  O        11.7793541288       11.6719874946       11.2601716159
  O         3.7787722941        9.2865057518        9.7486288633
  O        12.4214322209        7.0416157839       10.9946563529
  O        12.0689128685        5.1008395963        9.4058033738
  O         5.7359778338        1.8861493118       10.1239193697
  O        -0.7090786760       13.9660859082       12.2556793608
  O         7.6962090297        0.2748652076       10.8240180484
  O        12.2666345875        1.5556279550       13.4112434637
  O        -0.2433133900        7.5508983491       11.4347182078
  O         1.8542787718       10.5503403568       12.3011840332
  O         4.5296665692       10.8377273131       11.8570225289
  O         1.2552228564        3.4102867585        9.4410366975
  O         9.8131551986       -0.6372824964        9.3807628987
  O        12.0614532158        9.4137490460       10.0366170252
  O        -1.3034359164       11.5642743776       12.9124715065
  O         5.2911519191        6.1640460161       12.5953059555
  O         9.7077278939       15.3125671872       12.0286815522
  O         4.3406810323        3.4009527770       12.0194056504
  O         6.4404119041        8.8841054160       12.3411120010
  O         4.3610268468       13.2463834482       13.7192997371
  O         0.4707030641        4.8606480329       12.3721525748
  O        -2.1926047831        5.9946862696       15.2892218249
  O        10.2237755119        6.9099427483       12.8925367002
  O         8.8782901977        9.3241046156       11.8395398390
  O         2.2731775805        9.4526871329       14.7574593761
  O         8.5158085741        2.1561246373       16.3182060865
  O         1.8592455196       12.9676752186       13.2896334910
  O        -4.7869882378       11.6366738776       15.4985747429
  O         7.8987238890        3.0095584697       13.7651215932
  O         4.9966624052        2.4514461452       14.5427470752
  O         6.5456013146        6.7820252127       15.1673625464
  O         9.2637611309       11.6043624420       13.2372242773
  O         8.0005246238        5.6122088983       13.3408916383
  O        13.9077322452        3.7999295203       14.0966098730
  O         5.0339225651        4.6187734117       16.1655191787
  O         5.0746128689        9.6625117426       16.1918837205
  O         6.2629043975       17.5937880350       18.6897108069
  O        14.0848152752       11.6198853247       15.4247011268
  O        -0.5024231472        2.9381839550       16.8624882735
  O         2.1613070502        4.8913673982       16.0977968677
  O         4.4816381513       12.2877565904       16.5601404368
  O         0.8912358532        7.1733223593       14.6128162118
  O        -0.4656666854        7.5644270903       17.8720287110
  O         1.1968574662       11.2836192591       16.6335143859
  O        12.9909431203        9.3515616912       16.5714790186
  O         7.5208687314       10.0839357503       15.0177372683
  O         2.1899248333       15.6755833561       14.9131176452
  O        10.1615825135       16.8534518996       17.9174096470
  O        -1.8832908025       13.9078081861       16.7103478153
  O         0.5803594791        5.0620169675       18.3805058249
  O         5.9124669752        8.5976261380       18.6506750009
  O        12.5467113327        4.5576085002       17.5052031069
  O         6.8743588525       13.5132327643       17.5641803698
  O        11.0402069091       14.4079825808       15.6224754807
  O        10.9530459142        7.9756153139       15.0374212149
  O         8.7212129898        5.6987088820       18.8551180196
  O         2.1231132313       13.8527402944       16.8710359701
  O         3.7911961253        5.9765502900       23.1930070939
  O         9.1925127591        7.6549741358       16.9326133011
  O         9.5687855035       10.0084783239       20.6366150815
  O         0.6052658368        9.8912102486       19.0802664593
  O         5.0210131317        5.9018130806       20.4952288442
  O        11.9716631614       10.1077542750       19.3306897626
  O        -2.6856303332       13.2646275987       19.3484467253
  O         1.1896075550        4.4745404752       20.8544614250
  O         3.9385570813       13.3544222783       20.3280615513
  O         9.0340616536       10.3368053111       17.4451868992
  O        -1.6636248133        5.2983804845       21.9611541792
  O         5.9569324533       11.2831502319       21.4325932982
  O         2.5923132439        8.3136888962       22.9520745033
  O         5.9980467193       14.9257082129       19.6870336714
  O         9.9470309771        7.1302768709       20.9096811390
  O         7.3545717087       10.7550846260       19.3904753337
  O         1.5201543662       14.6246688564       19.4423906951
  O        10.0076584532       14.3562736920       19.5868066544
  O         8.9461465272       11.0641521243       23.5029239017
  O         6.3090162765       16.9196035513       23.2365753428
  O         0.0880109266        9.2974517550       23.2549597082
  O        12.3179575557        6.4254752775       19.7711060301
  O        12.5112057451       16.3932930499       22.8880062286
  O         6.6124251822        6.7266449297       23.0611193901
  O        10.6836758767       12.9596518887       22.7063787348
  O        14.3806331503       10.6860857771       21.0549895091
  O         4.0166467254        1.4146403969       23.1141055277
  O         1.4854265744       16.0401620044       22.9592997227
  O        15.7431758958       13.4898210364       22.8857884210
  O         9.4879382268       19.3421965463       23.2548634514
  O        13.5876943032        7.1923385330       23.8138133374
  O         2.9988061568       10.0477645309       20.5341679821
  O         5.5154998505        9.3327224058       23.1917079161
  O         8.1840473994       14.7845131125       21.4910933569
  O         9.8680971656        3.5885476397       23.0478807724
  O        12.9028460031       11.6674556257       23.2254313978
  O        11.3614527243        8.9462719910       23.3119476192
  O         6.9804921352       13.2393025925       23.1246128376
  O        -1.1262511237       14.5664464723       21.0028986962
  H         3.2549689367        0.8442604466        8.6069824849
  H         9.0569147679       10.5189905623        8.8070167239
  H         1.9779822888       11.2685815003        8.4700381047
  H        -0.6883046312        3.2452743395        9.4231904341
  H        10.2598134145        4.1508348538        9.2331031794
  H         0.3294795787        6.2203254030        8.7070904306
  H        -0.1183226536        0.1060867817        8.3497030623
  H         4.4294388747        3.6720725988        8.9150862623
  H         7.0795991188        3.9859410410        9.0276126327
  H         3.0303977578        5.7270242909        8.9784629054
  H         7.9675032876        6.1339280755        9.1976110060
  H        15.1384064724       14.0002612595        9.8092415161
  H         2.7895184745       13.0335859254        9.5474945155
  H         6.5576308967        8.1825059800        9.2391104539
  H         2.6119280541        7.8675741152        9.0869241266
  H         8.4397676925        9.1996746037        8.3743264120
  H         0.5989134858        6.5512100509       10.3092045093
  H        -3.6199922994       10.6845068419       10.8694640023
  H         9.2287022943        3.0525914597        8.9166974296
  H        -1.4388224297        3.0984322078        8.1414099298
  H         2.6182731435       10.4702723453        9.4953332151
  H        -3.5048680402        6.9280229764       11.7073231479
  H        11.9881112240        5.6135999196        8.5325499751
  H        12.2799369748        6.2773476115       10.3873160818
  H         4.9787305187        1.2722172337        9.9648757512
  H        -1.6389113702       14.1521986017       12.6316907586
  H         0.2735397413        7.2609823065       12.2134037420
  H        12.6407856627        2.4703646643       13.6176707559
  H         6.9667334122        0.9696248584       10.6195963901
  H        10.9121461454       12.0380966635       11.2400782585
  H         3.5984481633       10.5802083522       11.9538232959
  H        11.8990607996        9.2761664884        9.0559096826
  H        12.0643740732        8.4660698759       10.4539786712
  H         8.3705952317        0.7527854974       11.3831342264
  H         5.3188898089        2.5654016894       10.7032272172
  H         1.1582883574        4.4029480190        9.6830886461
  H        12.9014064225        4.4618200163        9.3083907315
  H         4.9473628235        6.4361681165       13.4473458821
  H        -0.6427171088       12.9661323720       12.4498742371
  H        10.0045620124       -0.3823470533        8.4233545863
  H         2.2144001110       10.1055475371       13.0595546138
  H        11.7371020957        1.2954208738       14.2398835185
  H         4.5948331542       11.5002189154       12.5988368795
  H         1.0941542860        3.3633692589        8.4882572700
  H         4.9929183335       13.9624108470       13.9379023820
  H         1.8257981271       11.5383947866       12.5977061187
  H         5.5897614968        9.3234188473       12.2511114149
  H        10.6071228006        2.0347785621       12.4563195302
  H        -2.7973571913        6.8082009994       15.2227565337
  H        -1.1358058824        7.1432923862       11.4447313143
  H         6.3401498888        7.8659857483       12.3548605195
  H         1.2464759266        5.3714419373       12.6250872657
  H        -2.1900858950       11.5659663235       12.4752715707
  H        -0.0558420337        4.5907317472       13.2463246378
  H         4.6430942239        4.3170824936       12.1494561274
  H         7.8664675567        9.2295453118       11.9808178157
  H         8.9670196772       -0.1759983743        9.5159041593
  H         9.7400582029       15.9641802990       11.2625288879
  H        -1.4823211916       11.4765451013       13.8719080223
  H        -2.7736785470        5.5552043713       15.9502104992
  H         6.2566100427        5.8578072660       12.6756981917
  H         7.8931514351        1.4841455623       16.7518867854
  H         4.7965948890        2.9329581365       12.8126570666
  H         9.9980934462        7.7317864411       12.3028026733
  H         4.3773759169       12.9689116745       14.6681397918
  H        10.0766101114       11.7233501090       14.6105154490
  H         1.6382983937        8.7692537747       14.7470097389
  H         9.4374267854       10.7203326054       12.7585037044
  H         8.9092674623        6.0295569284       13.1843706988
  H        10.5854803500        7.3822505511       13.6959030120
  H         2.7354247047       13.3632482081       13.5565622008
  H         8.8902120450        9.4759481923       10.8484531380
  H         5.3784322152        4.4624963793       17.1500859484
  H        -4.0186574635       11.0948688328       15.3819813830
  H        13.4929073899        4.6289684155       14.4269883453
  H         4.4359089372        9.2642749966       15.4909030472
  H         8.5907915841        2.5421725238       13.2175946890
  H         7.1121023399        7.1919937111       15.8036559802
  H         3.9360605026        2.4181278482       14.5815794258
  H         8.0913772246        2.4227571493       15.4007098595
  H         1.9080412452       10.0917901263       15.4771236035
  H         7.0449802533        2.5464515758       13.7060862643
  H        14.5541013396        3.4673126217       14.7402134597
  H        -1.3372925375        3.4453701605       17.0595656827
  H         7.1979067343        6.4798764283       14.5379656480
  H         8.3575534959       11.3308052126       13.5701108047
  H         1.1649082367       13.4550603822       13.7783198824
  H         5.5665740683        5.3922351541       15.8855918465
  H         5.2538255781        3.1051035095       15.2164552856
  H         5.3195678546       12.7652650135       16.6342732995
  H         8.0357770619        4.7359821358       13.7681275030
  H        -0.2562080042       11.6161617994       15.7259711274
  H         5.8854039376        9.6798641081       15.6243785065
  H         3.1503766077        5.1083201833       15.9669133737
  H         8.0328899523       10.1547387123       15.8293185854
  H         6.0565950753       16.6467489701       18.8868148592
  H         2.0553788108       16.6378122469       15.2214447255
  H         5.6928988456       18.0607382252       19.4208084699
  H        15.3697132507        7.3823377887       14.9565016305
  H        -1.5843057539       12.4493093041       15.8856789004
  H        13.3584217572       10.2683083524       16.2597010399
  H        -0.0274865966        8.3751187873       18.3857036503
  H        -0.7960388871        2.0234137677       17.0003059682
  H         1.3667332546        6.7416183928       15.3503791495
  H         4.7420250407       11.3171220363       16.5137385161
  H         0.9561724211       10.9323040275       17.5859991684
  H         0.1738505112        4.2368542430       18.0193839099
  H         1.8948312301        4.9214898820       17.0140507044
  H         5.3737541827        8.9480110248       17.9051585912
  H        11.6687223322        4.0129010589       17.5946799305
  H         9.7401761274       17.7105294145       18.1427352797
  H         7.6624739860        9.1381950170       14.6630629048
  H         0.1286368571        5.8549768448       18.0271809074
  H         1.4980602540       12.2542876136       16.8622529404
  H        11.6013908200        8.7405420587       15.1178112512
  H        12.5928999131       14.2771390797       16.3982376580
  H        -1.1241321576        7.9841971174       17.2460116538
  H         2.1790402942       15.0165163805       15.6890163833
  H         9.4303881630        3.0548796724       17.4677955602
  H        12.6852478511        9.6631275352       17.4722040593
  H         3.0037467326       13.3494838773       16.9545467267
  H         7.1596917199       12.9130740704       18.3099350698
  H        10.8869333504       13.4520302967       15.6269187371
  H         3.2101750436        6.7789147041       23.3462164441
  H        10.0830503757       14.7621052222       15.6511141146
  H         7.9011847392        5.1889788137       18.8769051754
  H         5.3916823763        7.8459262367       19.0029401269
  H        -2.1165321833       13.7369358606       17.7271009693
  H         9.0535971981        8.4004539656       17.4629564500
  H        10.2771152864        7.8668596358       15.7262251363
  H         3.3704476312        5.2258743184       23.6661121135
  H        12.6240161180        5.1407631865       18.3098950700
  H         9.1392722760        6.8215219450       17.5350632934
  H         6.5140353079       14.2420548812       18.1185554681
  H         4.4368553038        5.9022941553       21.3210572891
  H         0.8747981175        4.7556343740       19.9600732204
  H         1.8662535107       14.2954168200       17.7715395707
  H         9.3151008868       10.4699028981       21.4846982717
  H         5.8102598675        6.4125844734       20.8310445129
  H         1.5260751719        9.7938544661       19.4235295320
  H         8.9216183231        6.1690282355       19.6603140792
  H        12.4376257062       12.3263069254       19.3723524478
  H        -4.2647707941        9.9379384078       19.7163200853
  H         9.6228336001       10.9997805752       16.9888697307
  H         8.8707961770       10.3393040446       20.0908837283
  H         0.2953081006       10.3445909613       19.9257521661
  H         1.7696553510        8.7548331216       23.2141470083
  H        -2.2411043864       19.0340011628       21.2260152544
  H         5.7502522280       10.5581951485       22.0815254004
  H        -2.1501104155       13.5502343336       20.1712316724
  H        -0.7737890831        5.0027599201       21.5643505339
  H         4.2521769263       12.4171368542       20.3001224343
  H        12.6733463834       10.0604174571       19.9663256832
  H         1.8297376651        5.2261501947       21.1843740442
  H         9.3929970224       10.4456403021       24.0645887411
  H         6.6912091002        1.4962814220       20.3494856145
  H         4.1184841368       13.6381433942       21.2794495515
  H        10.8604134046       13.9046164092       19.7083546219
  H         3.3230104298        8.8824945059       23.3189714785
  H         8.5935067112       10.7675641803       18.2003331466
  H         6.8891746164       11.0811310646       20.2399547230
  H         8.3011359780       11.5826475159       24.1024667171
  H         9.6397580780        8.0519681654       20.9391357680
  H         6.7661352806        3.5931632623       24.0832835450
  H         9.7407922222        6.7362521431       21.7890008225
  H        10.0657869713       15.2761501968       19.2233688956
  H        -2.3140776182       17.2277024808       22.6959198365
  H         6.3691737103       12.0490001216       21.9165398687
  H        11.3822175975        6.6259019898       19.8986843253
  H         6.1361919891        5.9740700271       23.4067350680
  H         0.6551557934       14.9300020719       19.8494237367
  H        10.7089944781       13.8151979044       23.1417066310
  H         5.1290456853       14.4799955768       19.9836392107
  H         2.1739009345       14.1305675210       20.0514678375
  H         6.8557793561        9.9581481627       19.0331358248
  H         3.1172647250        1.7835797502       22.8770772876
  H         5.6242202472        2.9230305558       23.2773310364
  H        10.0552865291       12.4530459268       23.2673837649
  H        -0.3160546400        8.3940089924       23.5173665930
  H         0.1167969892        9.9128104068       23.9971048878
  H        12.6717817800        7.3049452463       19.4741018484
  H        12.8312156693       16.2288889064       23.7885883390
  H        15.1757880252       13.0011502027       23.4715259557
  H        14.2407607018       11.4110747226       21.6930243872
  H         5.9142284672        9.6641700254       24.0042331595
  H         7.5730327693        6.5462592342       23.2041210166
  H         8.6943063822       15.4809836834       22.0697264911
  H        14.6832675826        9.9941670779       21.6419786475
  H         9.5582984580       18.3828076906       23.1619287743
  H         1.3007265174       16.4845953790       22.1018778296
  H        12.8082374662       21.0269588436       23.7938647193
  H         1.4315196871       16.7198671522       23.6184388515
  H         2.9375408450        9.4762214409       21.3091952822
  H        16.1436865787       14.1743265513       23.4363825220
  H        12.0008272102       12.1211117503       23.1337687614
  H         3.9905830267        1.3639054780       24.1859608082
  H         9.5333077541        3.2877190658       24.0084061733
  H        12.1290028878        9.4759084949       22.9163880562
  H        11.4041964079        9.1783694697       24.2892596970
  H         7.5697905252       14.0134760975       22.7711862695
  H         6.3316630236       13.6954541782       23.6318904232
  H        13.3310042911       11.7710851207       24.1416148878
  H        13.6680857313       14.9819996888       21.6824720879
  H        10.0625997896       19.7468253827       23.8985610530
  H        13.5427214978        6.5666388140       23.0381461980
  H         8.9190861719       14.3391477862       20.9561072420
  H         5.8921670645        8.4340022730       23.1390634200
  H        -0.4069411588       14.0907735027       21.6001199371
  H         3.7581002446        9.7508169259       20.0236150183
  H        10.8417057037        3.4391606604       23.1463578592
  C         4.9008406505        4.6626888258        9.0459559837
  C         6.3059423817        4.8227669854        9.0333389728
  C         4.1245950594        5.7925807187        8.9892210272
  C         6.8915269954        6.0837704752        9.1247025799
  C         6.0683091220        7.2140316885        9.2905451098
  C         4.6663468740        7.0510569159        9.3033093371
  C         3.6977898893        8.1165568468        9.3985289655
  K        12.3779356713        0.7015499334        9.9588238544
  K         1.8524725533        2.3992002837       11.7552301772
  K        -0.4263984352       10.3456371042       10.5569922054
  K         5.8480489817       11.5367076546        9.6310002213
