      468
3000
 Cu         0.0000000000        0.0000000000        0.0000000000
 Cu         0.0000000000        4.4270557290        0.0000000000
 Cu         0.0000000000        8.8542442710        0.0000000000
 Cu         1.2779405470        2.2135942710        0.0000000000
 Cu         1.2779405470        6.6406500000        0.0000000000
 Cu         1.2779405470       11.0677057290        0.0000000000
 Cu         2.5560344530        0.0000000000        0.0000000000
 Cu         2.5560344530        4.4270557290        0.0000000000
 Cu         2.5560344530        8.8542442710        0.0000000000
 Cu         3.8339750000        2.2135942710        0.0000000000
 Cu         3.8339750000        6.6406500000        0.0000000000
 Cu         3.8339750000       11.0677057290        0.0000000000
 Cu         5.1119155470        0.0000000000        0.0000000000
 Cu         5.1119155470        4.4270557290        0.0000000000
 Cu         5.1119155470        8.8542442710        0.0000000000
 Cu         6.3900094530        2.2135942710        0.0000000000
 Cu         6.3900094530        6.6406500000        0.0000000000
 Cu         6.3900094530       11.0677057290        0.0000000000
 Cu         7.6679500000        0.0000000000        0.0000000000
 Cu         7.6679500000        4.4270557290        0.0000000000
 Cu         7.6679500000        8.8542442710        0.0000000000
 Cu         8.9458905470        2.2135942710        0.0000000000
 Cu         8.9458905470        6.6406500000        0.0000000000
 Cu         8.9458905470       11.0677057290        0.0000000000
 Cu        10.2239844530        0.0000000000        0.0000000000
 Cu        10.2239844530        4.4270557290        0.0000000000
 Cu        10.2239844530        8.8542442710        0.0000000000
 Cu        11.5019250000        2.2135942710        0.0000000000
 Cu        11.5019250000        6.6406500000        0.0000000000
 Cu        11.5019250000       11.0677057290        0.0000000000
 Cu        12.7798655470        0.0000000000        0.0000000000
 Cu        12.7798655470        4.4270557290        0.0000000000
 Cu        12.7798655470        8.8542442710        0.0000000000
 Cu        14.0579594530        2.2135942710        0.0000000000
 Cu        14.0579594530        6.6406500000        0.0000000000
 Cu        14.0579594530       11.0677057290        0.0000000000
 Cu         0.0000000000        2.9513704860        2.0869457760
 Cu         0.0000000000        7.3785590280        2.0869457760
 Cu         0.0000000000       11.8056147570        2.0869457760
 Cu         1.2779405470        0.7379090280        2.0869457760
 Cu         1.2779405470        5.1649647570        2.0869457760
 Cu         1.2779405470        9.5920204860        2.0869457760
 Cu         2.5560344530        2.9513704860        2.0869457760
 Cu         2.5560344530        7.3785590280        2.0869457760
 Cu         2.5560344530       11.8056147570        2.0869457760
 Cu         3.8339750000        0.7379090280        2.0869457760
 Cu         3.8339750000        5.1649647570        2.0869457760
 Cu         3.8339750000        9.5920204860        2.0869457760
 Cu         5.1119155470        2.9513704860        2.0869457760
 Cu         5.1119155470        7.3785590280        2.0869457760
 Cu         5.1119155470       11.8056147570        2.0869457760
 Cu         6.3900094530        0.7379090280        2.0869457760
 Cu         6.3900094530        5.1649647570        2.0869457760
 Cu         6.3900094530        9.5920204860        2.0869457760
 Cu         7.6679500000        2.9513704860        2.0869457760
 Cu         7.6679500000        7.3785590280        2.0869457760
 Cu         7.6679500000       11.8056147570        2.0869457760
 Cu         8.9458905470        0.7379090280        2.0869457760
 Cu         8.9458905470        5.1649647570        2.0869457760
 Cu         8.9458905470        9.5920204860        2.0869457760
 Cu        10.2239844530        2.9513704860        2.0869457760
 Cu        10.2239844530        7.3785590280        2.0869457760
 Cu        10.2239844530       11.8056147570        2.0869457760
 Cu        11.5019250000        0.7379090280        2.0869457760
 Cu        11.5019250000        5.1649647570        2.0869457760
 Cu        11.5019250000        9.5920204860        2.0869457760
 Cu        12.7798655470        2.9513704860        2.0869457760
 Cu        12.7798655470        7.3785590280        2.0869457760
 Cu        12.7798655470       11.8056147570        2.0869457760
 Cu        14.0579594530        0.7379090280        2.0869457760
 Cu        14.0579594530        5.1649647570        2.0869457760
 Cu        14.0579594530        9.5920204860        2.0869457760
 Cu         5.1676248773        1.5593426531        4.2168790810
 Cu         3.7885866437        3.7301712576        4.3325811482
 Cu         6.3742132855       12.5234994320        4.1754848306
 Cu         2.5532825327        5.9731379862        4.1136341189
 Cu         3.7900104711       12.6374755737        4.0920891930
 Cu        11.5486252991        3.7246891483        4.1787094977
 Cu         2.6121403383       10.3385207072        4.0185449087
 Cu         1.2378994739       12.5534429660        4.0696030148
 Cu         5.0191619829       10.4884127153        4.0725565731
 Cu        12.7650898287        5.9818049097        4.1457825234
 Cu        10.2678401160        1.5240879815        4.1574575299
 Cu         2.5394716121        1.5134120506        4.0970945114
 Cu        14.0749857427        8.1654275499        4.1717405990
 Cu        12.8174114882       10.3422866428        4.1263981446
 Cu         7.6664540639       10.2903509452        4.0347966554
 Cu         3.8264656132        8.1026742535        4.1871188097
 Cu        12.8556638209        1.5508157996        4.2475673022
 Cu         7.6723862921        1.5109698310        4.0451608432
 Cu         8.9222915612        8.1372136236        4.0660377377
 Cu        11.6140524810       12.5457954965        4.2395166652
 Cu         9.0259981267       12.5978012895        4.1365123115
 Cu        -0.0759788070        5.9367998582        4.1392571285
 Cu        11.4991605943        8.1749511454        4.1050262916
 Cu         6.2894588390        8.1342495309        4.1188572483
 Cu         6.3079136425        3.7122063337        4.1568221507
 Cu         1.2089184066        8.1871953832        4.1829370826
 Cu        10.2889619763       10.3870424596        4.0353545696
 Cu         5.1474619521        5.8588060686        4.0569971053
 Cu        10.1645331619        5.9489036848        4.0717700039
 Cu        14.1264906324        3.6563071137        4.1760160750
 Cu        14.1189235815       12.5532879537        4.1033700931
 Cu         0.0483476417        1.4704440717        4.1532051900
 Cu         1.3490512101        3.7646872809        4.1587237708
 Cu         0.0957259576       10.3084303291        4.1368071090
 Cu         8.9649911754        3.6590990712        4.0792230721
 Cu         7.7318197531        5.9942930144        4.1318963032
 Cu         3.7381869515        2.2558186493        6.2317096394
 Cu         5.1359215132        0.0757852871        6.2859450953
 Cu        12.8448547838        8.7755263125        6.1748709367
 Cu         5.1835901267        4.5745545267        6.3899775620
 Cu        11.5967081602        2.1941824584        6.3287783465
 Cu         9.0207048486        6.7323387545        6.2804903168
 Cu         3.9113691406       11.1415722659        6.2563763245
 Cu        12.8109320627        4.3966836611        6.2421696399
 Cu         6.4694934448       11.1651406129        6.1520355282
 Cu         2.6165372672        9.0039250610        6.1123479758
 Cu         1.2692313863       11.1123609299        6.1678887542
 Cu         7.5906138854        0.1657091944        6.1538862577
 Cu         6.5457176030        6.6928026663        6.1579005745
 Cu         6.5016747129        2.4071399440        6.2388388055
 Cu         3.8684534797        6.7872326097        6.3072752954
 Cu         2.4091291556        4.5295647318        6.2687359333
 Cu         0.0428272554        0.0993673804        6.2962857418
 Cu        11.5558835954       11.0950569451        6.1912563808
 Cu        10.2475717449        4.3346319443        6.1360812822
 Cu         7.6762623604        8.8780153153        6.2310063978
 Cu         2.5790294226       -0.0314280378        6.3667756732
 Cu         5.2572080952        8.9855267441        6.1482794759
 Cu         1.1945382938        6.7141763490        6.2054101926
 Cu         8.9606462753        2.3034540038        6.2360060247
 Cu        12.8848615540       -0.0528464003        6.3231280815
 Cu        13.9986455603        6.5678308180        6.2678320980
 Cu        10.2920456362        0.0845072070        6.2763191637
 Cu        10.3593244016        8.8927420088        6.2460016521
 Cu         8.9410483325       11.1259819968        6.0310576423
 Cu        11.4538180401        6.6064070813        6.1588102576
 Cu        14.0934462202        2.2779541332        6.3088455845
 Cu         7.7794561258        4.5454958979        6.1285957227
 Cu         0.0578712956        8.8921130073        6.3422302491
 Cu         1.3567170095        2.3076628816        6.2505365816
 Cu        14.1717064756       11.1231416907        6.1760143326
 Cu        -0.0028181376        4.4258853716        6.3443292562
  O         2.3802557088       15.5513220875        9.4640793053
  O         2.1692903866       12.0626800203        9.3010321076
  O        10.5432020541       11.0334794997        9.0573896479
  O        -0.9220038418        3.0599986872        9.3442265097
  O         0.2063667288        5.7800139693        9.5266328734
  O         0.4452594383        8.5501141009        9.5022217474
  O        11.2034030779        7.6655335644        9.3390503062
  O        12.7194804615       13.6551234433        9.6280960283
  O         7.2175779999       10.1054823893        9.4713436251
  O        12.8158401984        5.6129229910        9.9961908830
  O        12.8357203980        9.7489485356        9.9762296430
  O         4.8485754670        2.2569479513       10.6693519100
  O        -1.0022473264       15.2534797501       12.9758628094
  O         7.5000072741        2.3369973213       10.1797716898
  O        10.6954435928        1.7908133806       12.1663507360
  O         1.6114180240        8.1050631645       12.0526015222
  O         4.0601745323       10.8419788456       11.0121161716
  O         6.5197406389       11.7332916228       12.0609659964
  O         2.6824466189        5.6500726666       12.2327122277
  O         8.8630891386        4.4177930830        9.1442153719
  O         8.7843675876        8.6530460977       10.7437047604
  O         0.1371659460       11.0951972716       12.3909288672
  O         6.9986913635        6.9172642973       12.0214738715
  O        11.5331930034       12.4441906158       11.6419633345
  O         5.2707578588        4.9124484746       12.0526187428
  O         4.5608864279        8.4485220642       12.2023942741
  O         5.0221152451       13.9027120543       12.8884007181
  O         2.5605379657        2.6385901306       13.9005425774
  O        -2.1304698715        5.3386474276       12.6568992411
  O        12.3468219789        9.3152626033       12.6144402749
  O         9.9069367132       10.3745511151       12.3819718602
  O         0.7311990468        8.0829448875       14.7471444357
  O         8.2088895501        2.0117689556       12.9994164435
  O         3.2586425644       11.9084510641       13.5902793796
  O        -1.9259958178       12.2172324365       13.6520689010
  O         9.7875004296        4.7969318788       11.5966082975
  O         5.4000022762        2.8488202716       14.4504734040
  O         7.4300211008        4.7561797916       14.2948589093
  O         6.8408582065       10.5694968049       14.6129961074
  O        10.6051921687        6.9887586963       12.9826820956
  O        12.0014497954        3.3258075566       14.0520097744
  O         3.7790086192        5.7705553184       15.1368922923
  O         4.9105286532        8.6616355444       15.0500106374
  O         7.7684175387       14.4120438828       15.9400640822
  O        13.4208319886        8.7081292411       15.0288432725
  O         0.3953743815        1.6626520046       16.1830946269
  O         4.5751421578        3.7562746706       17.0186969992
  O         6.1114656442       12.2490959667       16.8605012871
  O         0.7089099293        5.0557160470       14.8175844541
  O         0.8774028969        5.3473847925       17.3309546285
  O         2.5115246205        9.1105436563       16.4599708811
  O        11.9563341797        6.7536721741       15.7784160406
  O         9.6220492616       10.6665503324       15.2247856578
  O         1.1778739895       12.3960153850       15.4655553867
  O        10.8510930340       14.5978881864       16.3969613199
  O        -1.3131129039       10.4971827408       16.7499490435
  O         1.9979429328        3.2885021694       18.1023241538
  O         6.1714666514        7.8992760191       17.3098049688
  O        13.4986039904        3.1243291581       16.2228364597
  O         6.5381428907       10.1659102483       18.8864146404
  O        11.9359683227       11.9671843789       16.0523454421
  O         9.6995852998        8.2367272718       16.6040637966
  O         7.7703099738        3.2715499839       18.0480988347
  O         3.0075893061       11.7380490578       17.2398069434
  O         5.8150003959        3.9409355938       19.5298241989
  O         8.0082403733        6.0131275686       16.6723397036
  O        12.7560194657        6.9556797676       18.6170453269
  O         2.1943024239        7.0738781931       18.5918085782
  O         4.6757877713        6.6421409807       19.4045810358
  O        14.0155201720        4.2737485823       18.9464182447
  O        -1.5584317131        9.2730966365       19.3534100869
  O         0.7106094714        3.2954130541       20.4140782869
  O         2.9359549696       12.1408936837       19.9174619032
  O         9.7638178564        8.8101479118       19.3503170933
  O        -1.5083981113        1.0345240653       20.9760396121
  O         4.3251211329        9.7998081716       20.2366336145
  O         5.4685259688        2.8222188837       21.9427836934
  O         8.5329377991       13.3135496405       19.6403051557
  O         9.9891808444        3.5983927382       20.2474906544
  O        10.6654083422        6.0966943384       20.6537790975
  O         0.7173832459        7.9169179196       20.6690125133
  O        11.7138065950       10.2688650762       20.6378415697
  O         7.9256458152        9.1678987894       21.4301627591
  O         4.1360914342       13.8754104990       21.5943319869
  O         1.3653909761        4.2696601997       23.0156170231
  O        11.9966827939        1.9802951845       19.0727434030
  O        14.8657947426       12.7486578726       22.9904176397
  O         8.5400311524        3.4668561428       22.8972836886
  O         8.1568099018       11.2649557562       23.0419627624
  O        14.1626333171        6.5113963738       21.8577991177
  O         1.8772193099        0.8665696782       23.1334017250
  O         1.9713482627        8.4836297348       23.1270080424
  O        12.5608651347        8.5076676849       22.7600416052
  O        11.2058724279       12.2335972066       23.0149958549
  O        11.8254877814        1.6727060435       22.8229417495
  O         4.4196058572        5.1972155579       22.9180428166
  O         6.2028582869        7.6737757129       23.0934299283
  O         5.1551190833       12.1253974274       23.2377871452
  O         7.5747093380        0.8007535916       22.2109985463
  O         9.9752153625        8.6563211160       23.8729894345
  O        10.0052381388        5.7874277438       23.2489080982
  O         4.3910660602        9.7451339189       22.8528680768
  O        -0.3539297833        9.8578477126       23.5565044080
  H         2.1302979370        2.7966645536        8.6131021793
  H        10.7799606564       11.2874545349        8.1086247087
  H         2.5637855227       11.8188201278        8.4175859840
  H         0.3911232443        5.4101241449        8.6148455219
  H        11.2081221500        7.4184104569        8.3854504857
  H         0.7861167480        8.4370406192        8.5345233785
  H        -0.7271440774        3.6063180521        8.5207990655
  H         2.4324136878        6.9068331526        8.4954781302
  H         3.9186589687        4.8257009433        8.9086184759
  H         3.5152897874        9.0074556587        8.6800128146
  H         6.3051769874        5.0836355936        9.1279814549
  H        14.6472190488       15.4447318750        9.0264411062
  H         2.4871608336       14.6643869269        9.1371391698
  H         7.3520760910        7.2082579247        9.3285906403
  H         5.3513949792       10.4230821521        8.7824190292
  H        10.1736968031       10.1867028768        8.6881353431
  H        -0.4698460837        8.7908053417        9.4227504286
  H        -2.9570124837       13.6767239782        8.7464054048
  H        12.0140515802        8.2777852805        9.5889832585
  H         0.4320083632        6.7724703299        9.5603526517
  H         2.7841292881       11.5586073241        9.8858389675
  H        -1.6812202200        5.9044862703        9.4900521461
  H        12.1130288475       10.2979571876        9.6487526600
  H        12.1456461047        6.3458607960        9.8669033356
  H         3.9107038175        2.5186076159       10.3103337361
  H        -1.7243977059       15.7246415031       13.4569654136
  H         1.1349623593        8.7972397437       11.4921266621
  H        11.3641487566        2.1644630200       12.8397284075
  H         6.5250609895        2.3860981503        9.9656915087
  H        12.2091123884       13.0619472290       10.1969145707
  H         5.6391649636       11.4030292651       11.7920890603
  H         9.4688431882        8.2494445581       10.2008975982
  H         8.3163888455        9.2194246570       10.0874178572
  H         7.9984794025        3.0447837505        9.7130032865
  H         5.1131120847        3.0991667323       11.1166217228
  H         2.3582567689        6.5343144527       12.0202092573
  H        12.7056134325        9.6449906468       10.9506586695
  H         7.6209056448        7.4582493670       11.4695324184
  H        -0.7794336632       14.4817698513       13.5013839765
  H         9.0531908244        5.0876871156        8.4256050500
  H         4.2465154022        9.8820164663       11.2485833480
  H         9.8053672505        1.9773947332       12.5816037085
  H         6.2028115145       12.6115435705       12.4306073555
  H         3.5561793047        5.4753611510       11.8894634924
  H         4.8622228466       14.5349599127       12.0738943110
  H         3.6602329376       11.2848958410       11.8695414437
  H         3.6863080871        7.9936366298       12.0207890912
  H        11.2000778193        0.1068782638       11.7962007014
  H        -2.3863718179        5.6009196335       11.7173448595
  H         1.3311587251        8.4085429491       12.9709480335
  H         5.2301554690        7.7954876701       11.9819455580
  H         3.5200057645        2.7503280653       14.1025590427
  H        -0.6731287126       11.4998423632       12.9052229588
  H         2.0360304091        3.2945661535       14.4525662166
  H         5.8419620345        5.6319459708       11.7379522957
  H         9.4175405920        9.6772698814       11.8190292833
  H         9.3738326656        4.7498109532        9.9157545141
  H        10.7767434138       11.7955698047       11.9066804021
  H         0.8816434004       11.6236085537       12.8895731647
  H        -2.3074947472        6.0625046328       13.3068474960
  H         7.3469622742        6.9700612047       12.8956215743
  H         7.7341892397        1.7894565338       12.1625118658
  H         5.6695299821        4.6716950271       12.9561887311
  H        11.5437598187        9.8327242180       12.8100204760
  H         5.2070519878       14.5581143093       13.6161007075
  H        12.8101569606       12.3960128440       12.8738678716
  H         0.9717536703        7.1043361342       14.7238701070
  H         6.7802700750       11.0011277390       13.7022029920
  H        11.2214252047        7.7424510979       12.7768823402
  H        12.9607706372        9.4332029303       13.4120690155
  H         3.7877189187       12.7736023415       13.5629456243
  H         9.5022315605       10.3559953755       13.2579512122
  H         3.1949456214        5.4866793537       14.3451795892
  H        -2.4968857315       12.0136177769       14.4287157227
  H        12.2705965939        4.1583242414       13.5564959223
  H         4.6915396095        8.6768594638       14.0606155878
  H         9.0570306733        4.5518562233       12.1372502706
  H         7.5884706438        5.2134894493       15.1982383679
  H         6.2495185007        3.4724824669       14.4194650043
  H         7.7663536646        1.6091511072       13.7847818028
  H         1.4096860142        8.6262401006       15.4190877583
  H        10.0702287392        5.6152752255       12.0945689530
  H        12.7049987375        3.3130922143       14.8100020032
  H         1.1311934456        2.0109402952       15.6278667937
  H         7.9475552995        3.9309360051       14.1750968814
  H         5.9365111711       10.0093172737       14.7734783426
  H         2.5488396442       12.0343426209       14.2197086993
  H         4.3076670070        6.5319140286       14.8628456565
  H         5.1378623850        2.9316212870       15.4161718526
  H         6.5439720114       11.7092982464       16.1234812527
  H        10.4118044410        7.0439737166       13.9606009116
  H        -1.0701926773        8.2238704153       14.9859030780
  H         4.0616160370        8.9639715811       15.4159407456
  H         4.3278390294        4.6347614650       16.6053013433
  H         8.6561911546       10.8392772655       15.1500253160
  H         7.2204606799       13.7656462017       16.4440884462
  H         0.5573422473       11.7203302622       15.7626540403
  H         8.7266410523       14.2483814311       16.1640516473
  H        15.1918631362        4.7441646319       14.4616199534
  H        -1.7931374595        9.5390654112       15.8159053164
  H        12.4141192548        7.5224945843       15.3849387902
  H         1.3909470674        6.0992921481       17.7460716070
  H         0.5073083363        0.7210682533       16.0775786711
  H         0.6083727475        5.2422378597       15.7998336259
  H         6.4586948450       11.7933722962       17.6775784477
  H         2.4523157410        8.4643262035       17.1839917658
  H         1.5369229161        2.4553150015       17.7922908173
  H         3.7445967448        3.4351823976       17.3964641032
  H         5.9611568811        8.2101308339       16.4036801525
  H        14.3266276421        2.5891563070       16.4080776086
  H        11.1142208141       14.9859084398       15.5502919898
  H         9.6719038389        9.7523622441       15.6188709936
  H         1.5176166567        4.0684224200       17.6800338511
  H         2.5668055556       10.0468475524       16.7420133007
  H        10.4835643479        7.5787196005       16.4992236063
  H        13.1773607009       10.9878663650       16.8635671035
  H         0.0100880965        5.1710140383       17.8131936747
  H         1.9741315936       12.2614302835       16.1510529238
  H        11.3156617275        1.6053532623       17.2045724174
  H        12.3332922566        6.8038294121       16.6766568895
  H         3.9261333931       11.9068299696       16.9112620441
  H         7.1843004805       10.0253327429       19.6271032994
  H        11.7706615635       12.8832071283       16.2292396856
  H         5.3132631983        4.0233973735       18.6821643214
  H        11.0086984511       11.6787120739       15.7934248284
  H         7.8781873775        2.5409893556       17.3547702935
  H         6.7387543715        8.6606381430       17.6823650579
  H        -1.3432995804        9.9295344924       17.5952776347
  H         7.1926580335        6.6063363475       16.9738501757
  H         8.9949187978        7.5465748145       16.5436749398
  H         6.6968694251        3.5045125267       19.1441599251
  H        13.5150845425        3.9813577112       16.7713530439
  H         7.9989861089        5.4021167268       17.4573322474
  H         5.6274270397        9.9770503587       19.2815350149
  H         5.1939993286        6.8731144268       18.6287814203
  H         1.4752116584        3.3123721681       19.7469922521
  H         2.7980974731       11.9538735649       18.2380371459
  H        13.1702124909        6.0797622061       18.7577679221
  H         5.0569235976        5.7708340653       19.6474164715
  H         3.1667027038        6.8087806219       18.9298930985
  H         8.5864886259        3.2506950862       18.5389306341
  H        13.5225939820        8.3686450255       18.9542408605
  H        -0.6450724286        3.9585345605       19.5624242530
  H         9.7520061491        8.7801120598       18.3695429687
  H        12.1672373111        6.9711818758       19.4330373202
  H         1.7114733676        7.5442430412       19.4027444920
  H         4.9682127381        3.4139354603       22.5426070785
  H        -2.1843881188       14.7134993924       21.6052992761
  H         3.9665422826        9.0004656112       19.8859362137
  H        -0.8532210966        8.9479693655       19.8883910855
  H        -0.7280450124        1.7097100757       21.0101797134
  H         3.5259468931       11.3570486361       19.9662546868
  H        13.4154750483        3.5578028842       19.0195825143
  H         0.9616398160        3.7395800005       21.2463828692
  H         8.5796321840        8.9034144572       20.7701535758
  H         9.2811450387        0.6717007114       19.5201177540
  H         3.4498155545       12.9858957893       20.2882308768
  H        12.6110680574       10.2537843684       20.2251900260
  H         5.4686074810        3.3374834412       21.0770211695
  H        10.3413537412        9.5063298122       19.6761786422
  H        10.2685335813        6.8881129454       20.2568835051
  H         7.3088080417        8.4082681368       21.6913141618
  H        10.1921194778        4.5576200873       20.2777102180
  H         4.4183240893        1.5517826867       21.5873224150
  H         9.5639726724        3.3851206451       21.0832691180
  H        11.4477305032       11.0077434610       21.2163588153
  H        -0.7795063321       13.2983578425       22.1984555446
  H         4.3272364596        9.6613605502       21.2688648768
  H        11.4851600287        2.3707711597       19.7862885185
  H         7.5959967785        3.5996056248       22.6925766526
  H         0.0468168897        7.3173752959       21.0657233315
  H         8.1346603337       10.8058548706       22.1600178330
  H         8.0386220558       13.7146057799       20.4636859737
  H         1.2051447930        8.2212215660       21.3917004061
  H        10.4893680353        6.1067247585       21.6044233084
  H         0.9885068324        0.3459281613       23.1369176727
  H         3.2151908886        0.6220467586       21.9356933451
  H         7.2351927785       11.3472211810       23.4188774324
  H         1.2959930040        3.6086016798       23.6737626339
  H         1.8069642413        5.0555695593       23.3445207318
  H        12.5792198460        1.3131803828       19.4839369429
  H        14.5384799988       13.3590364455       23.6691264516
  H        12.0274333863        8.8840278663       22.0236975618
  H        13.5597755367        6.9834747914       22.4631040112
  H         5.6723133158        8.4727895744       23.2759121463
  H         8.7152350847        2.5344946924       22.9549051436
  H         4.7572683503       12.9451742030       22.7395859933
  H        13.4740626679        5.9306252764       21.3661928424
  H        10.2325726188       12.2727974398       23.3070047258
  H         2.1540382706        7.8489977761       23.8947628344
  H        11.4017457157       14.0537050657       22.9696620801
  H         1.1774286997        8.9486358109       23.4730224240
  H         4.9962848736        5.9542073628       22.9951704165
  H        12.0169788354        8.6046299874       23.5471933521
  H         9.2690806062        9.2400880091       23.6186352518
  H         2.2553901091        1.0118024946       24.0325761549
  H         6.7647580167        1.2459907626       22.5449708531
  H         9.5768793397        4.9246576130       23.3391707205
  H        10.7066385117        5.7910268060       23.9272361848
  H         4.5134017535       10.7506855075       22.9113732941
  H         3.4775011838        9.4255876935       23.0926306273
  H         9.6261287836        7.8291514785       23.4316593072
  H        14.1553508068        9.3299670414       23.2939426204
  H        11.6385358284       11.7828956213       23.7924172223
  H        12.1335753402        1.8598009139       23.7522805983
  H         5.1142812957       12.2542884908       24.1656048536
  H         6.7753699929        7.5237404087       23.9069019874
  H        -0.4243337016       10.8265866963       23.2652352421
  H         4.2194004759        4.9162984433       23.8303171318
  H         7.5033997251       -0.0519379560       22.6129496100
  C         3.5668483088        6.8773440575        8.4928112065
  C         4.3293981087        5.7577792986        8.5790841360
  C         4.1775473304        8.1575816082        8.5900561582
  C         5.6995771223        5.9181043871        8.8581851386
  C         6.3598959733        7.1173571964        8.9265468210
  C         5.5647866857        8.3235875738        8.8718354910
  C         6.0584012040        9.7280561749        9.0672927274
  K        11.6158540541        2.9841322636       10.0275263497
  K         0.5701900722        3.6619361667       11.4978141747
  K        -0.4515620831       11.6830156335        9.5550606317
  K         7.6930510417       13.0034404016        9.2959036619
