      468
1995
 Cu         0.0000000000        0.0000000000        0.0000000000
 Cu         0.0000000000        4.4270557290        0.0000000000
 Cu         0.0000000000        8.8542442710        0.0000000000
 Cu         1.2779405470        2.2135942710        0.0000000000
 Cu         1.2779405470        6.6406500000        0.0000000000
 Cu         1.2779405470       11.0677057290        0.0000000000
 Cu         2.5560344530        0.0000000000        0.0000000000
 Cu         2.5560344530        4.4270557290        0.0000000000
 Cu         2.5560344530        8.8542442710        0.0000000000
 Cu         3.8339750000        2.2135942710        0.0000000000
 Cu         3.8339750000        6.6406500000        0.0000000000
 Cu         3.8339750000       11.0677057290        0.0000000000
 Cu         5.1119155470        0.0000000000        0.0000000000
 Cu         5.1119155470        4.4270557290        0.0000000000
 Cu         5.1119155470        8.8542442710        0.0000000000
 Cu         6.3900094530        2.2135942710        0.0000000000
 Cu         6.3900094530        6.6406500000        0.0000000000
 Cu         6.3900094530       11.0677057290        0.0000000000
 Cu         7.6679500000        0.0000000000        0.0000000000
 Cu         7.6679500000        4.4270557290        0.0000000000
 Cu         7.6679500000        8.8542442710        0.0000000000
 Cu         8.9458905470        2.2135942710        0.0000000000
 Cu         8.9458905470        6.6406500000        0.0000000000
 Cu         8.9458905470       11.0677057290        0.0000000000
 Cu        10.2239844530        0.0000000000        0.0000000000
 Cu        10.2239844530        4.4270557290        0.0000000000
 Cu        10.2239844530        8.8542442710        0.0000000000
 Cu        11.5019250000        2.2135942710        0.0000000000
 Cu        11.5019250000        6.6406500000        0.0000000000
 Cu        11.5019250000       11.0677057290        0.0000000000
 Cu        12.7798655470        0.0000000000        0.0000000000
 Cu        12.7798655470        4.4270557290        0.0000000000
 Cu        12.7798655470        8.8542442710        0.0000000000
 Cu        14.0579594530        2.2135942710        0.0000000000
 Cu        14.0579594530        6.6406500000        0.0000000000
 Cu        14.0579594530       11.0677057290        0.0000000000
 Cu         0.0000000000        2.9513704860        2.0869457760
 Cu         0.0000000000        7.3785590280        2.0869457760
 Cu         0.0000000000       11.8056147570        2.0869457760
 Cu         1.2779405470        0.7379090280        2.0869457760
 Cu         1.2779405470        5.1649647570        2.0869457760
 Cu         1.2779405470        9.5920204860        2.0869457760
 Cu         2.5560344530        2.9513704860        2.0869457760
 Cu         2.5560344530        7.3785590280        2.0869457760
 Cu         2.5560344530       11.8056147570        2.0869457760
 Cu         3.8339750000        0.7379090280        2.0869457760
 Cu         3.8339750000        5.1649647570        2.0869457760
 Cu         3.8339750000        9.5920204860        2.0869457760
 Cu         5.1119155470        2.9513704860        2.0869457760
 Cu         5.1119155470        7.3785590280        2.0869457760
 Cu         5.1119155470       11.8056147570        2.0869457760
 Cu         6.3900094530        0.7379090280        2.0869457760
 Cu         6.3900094530        5.1649647570        2.0869457760
 Cu         6.3900094530        9.5920204860        2.0869457760
 Cu         7.6679500000        2.9513704860        2.0869457760
 Cu         7.6679500000        7.3785590280        2.0869457760
 Cu         7.6679500000       11.8056147570        2.0869457760
 Cu         8.9458905470        0.7379090280        2.0869457760
 Cu         8.9458905470        5.1649647570        2.0869457760
 Cu         8.9458905470        9.5920204860        2.0869457760
 Cu        10.2239844530        2.9513704860        2.0869457760
 Cu        10.2239844530        7.3785590280        2.0869457760
 Cu        10.2239844530       11.8056147570        2.0869457760
 Cu        11.5019250000        0.7379090280        2.0869457760
 Cu        11.5019250000        5.1649647570        2.0869457760
 Cu        11.5019250000        9.5920204860        2.0869457760
 Cu        12.7798655470        2.9513704860        2.0869457760
 Cu        12.7798655470        7.3785590280        2.0869457760
 Cu        12.7798655470       11.8056147570        2.0869457760
 Cu        14.0579594530        0.7379090280        2.0869457760
 Cu        14.0579594530        5.1649647570        2.0869457760
 Cu        14.0579594530        9.5920204860        2.0869457760
 Cu         5.0998742151        1.4749448499        4.1828882371
 Cu         3.7481408579        3.6825460875        4.1515006502
 Cu         6.3698479063       12.6123366738        4.0876136825
 Cu         2.5699948310        5.9858708990        4.2139727855
 Cu         3.8168975369       12.4925445873        4.1144494018
 Cu        11.4881564293        3.7389788810        4.1680172765
 Cu         2.5213332996       10.2033273089        4.0845217334
 Cu         1.3714691990       12.5158191353        4.1766773466
 Cu         5.1457499744       10.2686792094        4.0852400145
 Cu        12.6841557327        5.9106291010        4.1216053922
 Cu        10.3202165080        1.4504178907        4.1320807759
 Cu         2.5258303835        1.4729209144        4.1358034633
 Cu        14.0492086835        8.1684637187        4.1112561482
 Cu        12.6808674878       10.3534626964        4.1041272835
 Cu         7.6585427992       10.3721084015        4.1666385044
 Cu         3.9116270970        8.0982216112        4.1235075017
 Cu        12.8432274110        1.5485222325        4.1334822821
 Cu         7.6929096380        1.4689918525        4.1719966745
 Cu         8.9616070516        8.1398589547        4.1099449182
 Cu        11.4150944815       12.5949261040        4.0582199889
 Cu         8.8856061471       12.4885093971        4.1807625885
 Cu        -0.1317128206        5.8924055414        4.1425270964
 Cu        11.4776818115        8.0957201980        4.0963226666
 Cu         6.4229852623        8.1142675204        4.0970359835
 Cu         6.3784821980        3.6481595981        4.1386347532
 Cu         1.2114378043        8.1229090128        4.0484603689
 Cu        10.2652151898       10.2982137949        4.1387343531
 Cu         5.0849593639        5.9222670797        4.1080147888
 Cu        10.1849634832        5.9206202586        4.1078685956
 Cu        14.0448985324        3.7874563586        4.2310966502
 Cu        14.0098659901       12.6255171565        4.0968688693
 Cu        -0.0457371381        1.4456576734        4.1088660654
 Cu         1.2575146740        3.7501042451        4.1552092114
 Cu        -0.0266130744       10.3596729340        4.0987058955
 Cu         9.0073729775        3.7713124412        4.0876597993
 Cu         7.6689376366        5.9097315960        4.1032609503
 Cu         3.8188685015        2.2052653449        6.2964504798
 Cu         5.0477816744       -0.0399613323        6.1963988665
 Cu        12.7793792728        8.8690241747        6.2414195367
 Cu         5.1429240080        4.4638701874        6.0923192809
 Cu        11.4942948313        2.2319002510        6.2388927662
 Cu         8.8477814537        6.5647894943        6.1314023376
 Cu         3.7059178257       11.1037997988        6.1629675937
 Cu        12.8108925526        4.4967468251        6.3477760169
 Cu         6.2899451155       11.0026767251        6.1080886802
 Cu         2.5611308829        8.8003162766        6.1772945244
 Cu         1.2505116102       11.0210635283        6.2975769565
 Cu         7.6670660713       -0.0223008273        6.2847698775
 Cu         6.3284648905        6.6486113961        6.2148349629
 Cu         6.3761436847        2.1350218871        6.3509940495
 Cu         3.8365465671        6.6006543183        6.1552374357
 Cu         2.5422096369        4.4180245155        6.1828916792
 Cu         0.0166208671       -0.0377917830        6.1210559941
 Cu        11.4939566148       11.0028653358        6.3317297640
 Cu        10.2251594794        4.4177978990        6.2372376753
 Cu         7.6764718378        8.8306805668        6.3604075231
 Cu         2.5546826769       -0.0169206709        6.2123333890
 Cu         5.1307192360        8.8147796407        6.1570908371
 Cu         1.2828009640        6.6632005816        6.2587250422
 Cu         8.8750911994        2.1920517079        6.1643640070
 Cu        12.6818442758        0.0127023987        6.0802942045
 Cu        14.0660013539        6.6248712054        6.2193601658
 Cu        10.2008629289        0.0535368007        6.1473732294
 Cu        10.3154666169        8.7292841801        6.1910202598
 Cu         8.9016662439       10.9597113089        6.2815867988
 Cu        11.5752819246        6.5943628680        6.3454787255
 Cu        14.0716890746        2.3177514496        6.1861122855
 Cu         7.6668963822        4.4537180065        6.1618533425
 Cu         0.0273905885        8.8861482604        6.2006619350
 Cu         1.2649287153        2.1769404608        6.1358629473
 Cu        14.0101710588       11.1034712886        6.1016293206
 Cu        -0.0019992712        4.4426450941        6.3577553690
  O         2.1159111800       14.6792525308        9.4016996890
  O         2.8775867918       12.2453986052        9.5678902721
  O         8.1351953977       12.6287573056        9.4432319047
  O        -1.1731573538        0.6868169218        9.0044503152
  O        -1.3036728298        3.9205119436        9.5368822084
  O        -0.2470301216        8.3916135745        9.6163874551
  O         9.4887736290        6.3818922917        9.0333145002
  O        11.2943107373       12.2026038466        9.0999142822
  O         5.1246383985        9.9500155112        9.5255672206
  O        11.3677858597        5.8256030128       11.0852607103
  O        12.4382283515        8.5865679870        9.8338909123
  O         3.5228857845        2.3617510685       11.1830842082
  O        -2.3338132349       14.7061924521       12.2876789742
  O         6.1611487967        2.1868888863       10.6012185387
  O         8.7906035873        2.2155119350       13.6187442627
  O         1.1517799034        8.8037614081       12.0947385943
  O         0.9723368903       11.3896907940       11.1489051241
  O         4.9170051989       12.1962179952       12.2506350165
  O        -0.3870438468        5.7796856382       11.2843457212
  O         8.9305999092        3.9018596445        9.5869726002
  O         8.2883472757       10.1406530576       10.1671346186
  O        -2.1071543973       11.9923192347       12.3773958686
  O         3.6943659250        6.4117469289       12.8846667191
  O         9.5253391864       14.3625042863       11.2875596982
  O         1.9903732544        4.3885441709       12.1538805971
  O         4.1386745985        9.6407130208       12.9504580867
  O         3.0056437690       14.0160733184       13.3322122880
  O         1.1879649274        3.0691955511       14.4379326726
  O        -3.3805223431        5.2435231677       14.0447062680
  O        11.3806918231        9.3661545641       12.3034176030
  O         6.8138180701        8.6003175254       12.6551992846
  O         0.0575506016        7.7694652301       14.4601804290
  O         7.2259690139        0.6754114923       15.7999184746
  O         0.5636753060       13.2138564247       13.1831275308
  O        -4.9536730773       12.1295860312       12.5879893403
  O         7.6475049965        4.2780875779       12.0769823356
  O         4.8232280110        2.4632243676       14.9856367644
  O         5.8050272328        5.1274238304       14.1968531768
  O         6.0424495594       11.8993728426       14.7385645086
  O         9.0269261585        6.6510925417       12.5448573634
  O        11.2931097049        2.6724974684       14.4185930306
  O         3.0965001351        5.4011725339       16.7145550878
  O         4.2460247182        8.7095422255       15.6358038082
  O         5.2014840876       15.8724455691       18.7455315547
  O        13.0054803477        8.8664660865       14.9224028490
  O        -0.9997847819        1.6700148938       16.4128369138
  O         2.6206957910        2.7628850910       16.9839570432
  O         3.4781612892       12.8199743773       16.5210892740
  O        -0.7360709394        5.1255530929       14.9161089150
  O        -0.6135717329        5.3965295367       18.1056527117
  O         1.5263272616        8.5277567978       16.4509415012
  O        11.6313788639        6.8124055146       15.9540702122
  O         8.9142485538        9.4310765834       15.2366640269
  O        -0.7935984881       12.3373764019       15.6693726892
  O         9.7021615095       13.4121071403       17.2570649702
  O        -2.7240642835       11.0374784015       16.5422728588
  O         0.4807791758        2.9517403156       18.9377290247
  O         5.4258437731        6.9702008720       17.6661737194
  O        11.6640809221        2.1924083361       16.9832458790
  O         5.3660010109       11.1873436284       18.1760400370
  O        10.2008831814       11.7753925109       15.2063707685
  O         9.1860517491        6.8513278681       15.0205527633
  O         7.5679655616        4.1839043940       18.8050654580
  O         1.3129700002       11.1420669064       16.9911376020
  O         4.2805674785        4.3239796349       20.4393302755
  O         7.3066040312        5.2504301510       16.3969728504
  O        11.2134744766        6.9444946135       18.5286494722
  O         0.9148785733        7.4629346636       19.0951643779
  O         3.2237858996        6.7637084533       20.5563943991
  O        12.6964812890        5.1497632867       19.9739143486
  O        -3.1629128753        9.5836497678       18.7852448213
  O         0.1013963905        1.8574231028       21.3364947404
  O         1.0963275892       11.0547412219       19.8619984333
  O         7.8735397179        9.5033775774       17.7033564418
  O        -2.6602422450        1.1201423652       21.5446137901
  O         3.4230386880        9.7798498944       19.8217192741
  O         3.6533325229        2.9007056540       22.6831773843
  O         4.5571353450       13.4124925873       19.5212760381
  O         9.4972225156        3.2303094375       20.6716021295
  O         8.6734899399        6.6738324584       18.9496454167
  O        -0.9785916082        9.1224421653       20.4052987368
  O         9.7267086634       10.8762573757       19.2080297717
  O         7.3602764927        8.4851870684       20.7503249605
  O         4.0344567292       13.2305248550       22.3434925499
  O         1.1275082441        3.3762432930       23.4084420351
  O        11.7337104716        2.6849042486       19.5164591674
  O        13.0184856465       12.0877463195       23.0840753002
  O         6.1890514795        3.9097134106       23.0768087001
  O         9.1211708019       10.2840163599       22.0152336530
  O        13.3082997310        5.9949878976       22.6282121430
  O         1.4304373051       -0.5911760221       21.9637726081
  O         1.5522779027       10.8991373373       23.7817769201
  O        14.9806748151        8.7850628384       23.7998983909
  O         7.5386597904       15.1850785377       21.4527732575
  O        12.1185689943        3.3106941126       23.2865861572
  O         4.1629762157        7.6043369673       23.3296732527
  O         6.4549073804        6.4898414955       22.9323992415
  O         5.7984794516       11.6503342602       23.2818244310
  O         8.0706824733       -0.4641462001       23.1402951655
  O         9.3183474973        7.7340922899       23.1855416677
  O         9.6318606506        5.0039334681       22.8950267032
  O         3.7592974426       10.1703412102       22.4045675597
  O        -3.0087866820        8.9010993504       23.1087582902
  H         2.1766847816        1.5465269719        8.3931296109
  H         8.5885146205       12.7127790119        8.5709637935
  H         2.6706285068       11.8882961361        8.6242370460
  H        -1.2392609174        4.0534991129        8.6037724271
  H         9.1593133285        5.4748675064        8.8479543848
  H        -0.0357387367        7.8868399663        8.8245511641
  H        -0.4349550526        1.1553799770        8.5006160172
  H         2.3780518110        4.9013831575        8.9156733470
  H         4.6147026225        3.9042885703        8.7300413369
  H         2.0522194814        7.3705729081        9.2225885194
  H         6.6857960385        5.2622403558        9.3094261595
  H        13.3877188598       13.8492608956        8.4436689426
  H         2.1712968394       13.6075191264        9.3807395810
  H         6.4693017216        7.7492936782        9.6493253095
  H         3.1196525496        9.5382938706        9.4507877526
  H         8.2284918778       11.6393405851        9.7101295949
  H        -1.2125617892        8.2775109490        9.7027427578
  H        -4.2255643523       12.7779930047        8.2508078897
  H         8.8474942182        6.9852563619        8.6222183394
  H        -0.8250368881        4.5927106047       10.0246305352
  H         2.2623534894       11.8420833876       10.2075780650
  H        -3.4005286424        6.5560933566       10.8309519352
  H        12.0678811100        8.4200552833        8.9223645801
  H        10.6117281043        5.9683880594       10.3912640976
  H         2.9626786947        2.0479399276       10.4114081965
  H        -2.7962726361       14.9050368829       13.1472327634
  H         0.6554268912        8.5228401760       11.2892752968
  H         9.6746648457        2.5024157191       14.0749021300
  H         5.1961097380        2.2380835564       10.4481971124
  H        10.4554368378       12.3750805328        9.6386867722
  H         4.4971710231       11.3046067259       12.2842529435
  H         8.0436768186        9.6662003388        9.3436520406
  H         7.6827443641        9.7284286173       10.8351139270
  H         6.3091506854        2.7660141975       11.3890325609
  H         2.9906320215        3.1871624293       11.3895179178
  H        -0.3729026410        6.6055188712       10.7589903930
  H        11.9165028213        8.7641805360       10.6282583598
  H         3.6368875875        7.2007790003       12.3514590217
  H        -2.3737044881       13.7210244776       12.2786564437
  H         8.2851708525        3.8185802023        8.8793511243
  H         1.0317752676       10.5360489175       11.6626785573
  H         8.1109993276        1.8526723997       14.2328810725
  H         4.2267818763       12.6789983907       12.6874214850
  H         0.5137707650        5.5767322843       11.5371364912
  H         3.1938404037       14.6539248860       12.5383498840
  H         0.7777363801       12.0503831925       11.8338441472
  H         5.0167107034        9.2074478958       12.5730249905
  H         9.1923774371        1.3914249469       12.1610020225
  H        -3.5914484379        5.7045506891       13.1580274903
  H         0.6105833815        8.6362602857       12.8931225351
  H         3.4452981546        9.0701675619       12.5306932150
  H         1.6385879945        2.7352837942       15.2307965530
  H        -3.0649445108       11.8393816506       12.4361363551
  H         0.5390269096        3.7856239661       14.8018974064
  H         2.8094625957        4.9427466486       12.3856610321
  H         7.6383451207        7.9787161084       12.6359307271
  H         8.3415819762        3.7803374750       10.3858268037
  H         8.8185124572       14.0022292322       10.7056656749
  H        -1.7994364283       11.5838508517       13.1915860386
  H        -3.6329210737        5.9136395860       14.7624352992
  H         4.6106740951        6.2817273429       13.0800608138
  H         6.7148495812       -0.1009414067       15.4945991261
  H         1.7928886194        4.0140838746       13.0222790328
  H        10.8723031719       10.2024473561       12.1776120603
  H         3.5632157335       14.4017172120       13.9982630693
  H        10.0400946933       12.8908214071       12.0705675153
  H        -0.1100897873        6.8120719607       14.6268408848
  H         5.7445033818       12.2437796670       13.8296083423
  H         9.8049887538        6.9819250497       12.0901112008
  H        11.9259988853        9.6358060289       13.1239728195
  H         1.4121449581       13.4768362891       13.5878198842
  H         7.0727605246        9.1759044442       13.3754879176
  H         2.6690352017        5.8159113692       15.9208230450
  H        -5.0495977259       12.3320402619       13.5360396668
  H        11.5220209356        3.6364778829       14.3153607351
  H         4.3887709977        8.9269767317       14.6992231188
  H         8.0830769065        3.7574870506       12.7850616380
  H         6.3579947614        5.1125600835       15.0662395923
  H         4.8854563527        3.3057031441       14.4862472754
  H         6.6263961883        1.4382109389       15.8929537269
  H         0.6510393882        8.0480490314       15.2593458931
  H         8.1011865551        5.1852468663       12.0090195505
  H        11.4526525934        2.5766994144       15.4036776730
  H        -0.4696821526        2.0000320254       15.6551071290
  H         6.4226832276        4.8602631859       13.5204564192
  H         6.5375964881       11.0875200469       14.6244900343
  H         0.0318968637       12.8867950627       13.9613304524
  H         3.8357593184        5.9341687596       17.0794123401
  H         4.3881454461        2.7236995450       15.8697625324
  H         3.7437818382       12.6623364252       17.4468820570
  H         9.3104851226        6.5270314712       13.5082242049
  H        -1.4568340882        8.4425047204       14.8468758808
  H         3.3078827618        8.5966475870       15.8354890657
  H         2.8952053945        3.7289075826       17.1223962937
  H         8.6125951856        9.4760701848       16.1983859495
  H         4.4605426627       15.8493434791       18.0663895215
  H        -1.6737482202       11.9654331246       16.0500051896
  H         5.2449806280       14.8777483368       19.1493617014
  H        13.6919013588        5.2004232138       14.5370971047
  H        -2.4364108480        9.6544131167       15.5451942620
  H        12.1764887424        7.6265795211       15.6135859115
  H        -0.0084351051        6.0597878648       18.4974467953
  H        -1.0193303577        0.6657616563       16.2590589238
  H        -0.7898799240        5.2465393304       15.9235529653
  H         4.2445758092       12.4572804385       15.9559806810
  H         1.5860349932        8.0095749575       17.3141314118
  H        -0.0821067243        2.3702894927       18.3536500449
  H         1.9304502538        2.5601434493       17.6403330774
  H         5.1460960412        7.6159913572       16.9393886899
  H        12.7125778719        2.2133153833       16.7760057203
  H        10.3461622283       14.1016994196       17.0210170066
  H         9.1647587045        8.4358869106       15.0503301046
  H         0.2186028829        3.8435026784       18.5993152384
  H         1.5128960350        9.5062145387       16.6071290102
  H        10.0990453039        6.7294509280       15.4197057946
  H        11.7085891566       11.3084115452       16.2020952316
  H        -1.3700792340        5.2641655588       18.7298174584
  H        -0.0451457024       11.8122945466       15.9836128619
  H         8.8318419106        0.4611808293       16.9802494337
  H        11.5815339724        6.7682951609       16.9766173744
  H         2.2141646872       11.5824794601       16.8968904552
  H         6.3115389702       10.7216665925       18.0776193614
  H         9.7985702386       12.2470333876       15.9441964743
  H         5.1243202743        4.8380765878       20.7019780207
  H         9.7652762396       10.8847453435       15.1613425865
  H         6.7943966203        3.5355188413       18.6999368654
  H         5.4270198034        7.4611240189       18.4670616040
  H        -2.8734402128       10.6800114175       17.4745145592
  H         6.8916686065        6.0490282946       16.7906009610
  H         8.5837766147        6.2994913610       15.6155830173
  H         4.6115283285        3.5538452345       19.7819934571
  H        11.5917887214        2.4769558444       17.9351321442
  H         7.7812895812        4.8157413871       17.1857440436
  H         4.8087556695       10.5639918630       18.6997763726
  H         3.3805373270        5.8510616543       20.3232503814
  H         0.3180596165        2.4447881865       20.5432967201
  H         1.2272400327       10.9915116503       17.9521675018
  H        11.7804173906        6.2569871039       19.0047495410
  H         3.5636844838        6.9873646022       21.4600914105
  H         1.5715339218        7.4588178817       19.8867654628
  H         8.3108287637        3.7624554097       19.2882916571
  H        11.8417402001        8.6528515226       18.7103025895
  H        -2.5808236996        5.5096208402       20.9190855649
  H         7.7678992706        8.5661873586       17.9067255628
  H        10.3180349601        6.6653401935       18.8970620468
  H         0.1575955091        7.9883551054       19.4719656349
  H         2.7824138622        3.0841093310       23.1848833254
  H        -2.7554198318       15.1305198003       22.1874300471
  H         3.1542345126        8.8431391998       19.7170242825
  H        -2.3268002078        9.4013198622       19.3020144161
  H        -1.7179795401        1.3716430289       21.2706470602
  H         1.9588329896       10.5364071613       19.9271497472
  H        12.4672177375        4.1523216044       20.0402212444
  H         0.3191555686        2.4230383160       22.1037107380
  H         6.7589000386        7.8985132507       21.3175989689
  H         4.5062152573        0.1208851112       20.5075597530
  H         1.1695754541       11.6509793147       20.5867827353
  H        10.6723791346       10.4920065537       19.1845145464
  H         3.7262548168        3.3700338755       21.8415537585
  H         8.4277756267        9.8090818824       18.4444791066
  H         8.2343948464        7.3392580123       19.6073423482
  H         7.9427569688        9.1626231684       21.2244640215
  H         9.5325903632        3.8358503004       21.4102351915
  H         4.0061361548        0.9183330408       22.5514361041
  H         8.7641815617        2.5597554515       20.9498964576
  H         9.7009876755       11.7893146625       18.8783965266
  H        -2.5286849192       12.7650675118       22.4399892159
  H         3.6395460605        9.8374410077       20.7494664497
  H        10.7904725720        2.9177165295       19.9087253207
  H         5.3014398873        3.4025005097       23.0856620156
  H        -1.2729188574        9.0581295068       21.3841185814
  H         9.5722113901       10.5580882504       21.1490244717
  H         5.2516452087       12.6814116051       19.2799556333
  H        -0.4538466479        9.9690093426       20.3844234427
  H         8.2709041280        5.8040172510       19.1345397319
  H         0.9284372244        0.2197174885       21.8969552550
  H         3.0700242327       -0.2699880865       22.1299863800
  H         9.0068846980       11.1221443370       22.5038201934
  H         0.7035511086        2.8132935669       24.0639062582
  H         1.1543406013        4.3473855271       23.7165088870
  H        12.0026157656        1.9091365773       20.0814308650
  H        12.5722257911       12.5019959762       23.9186036582
  H        14.9291027803        7.8093345690       23.8340860081
  H        13.1734822514        5.1436037859       23.0539582476
  H         7.3678764901        6.7198393932       23.2755912823
  H         6.4230633540        3.8218438461       24.0685538040
  H         5.0732144067       12.2941043758       23.0282897791
  H        12.4244925466        6.3694443205       22.7960342810
  H         6.9870546039       15.8334954999       21.9578148814
  H         2.3697643662       10.8055077949       23.2614660505
  H        11.2740016107       17.0266164177       23.0352862535
  H         1.0315223561       10.1062154321       23.7007986501
  H         5.1560243580        7.3802424081       23.3701770688
  H        13.9882483307        9.0617496156       23.6269195747
  H         9.3697712447        8.6269685928       22.7327806131
  H         1.1003554548       -1.1842590743       22.6534631664
  H         7.2059388599       -0.9309654231       23.0716305241
  H         8.8985000156        4.9493517619       23.5508998681
  H         9.9006358972        5.9627626332       23.1112922173
  H         4.6426540905       10.4585185355       22.7054237733
  H         3.7350756046        9.2761672058       22.8401008301
  H         8.9570954042        8.0010636597       24.0555109544
  H        12.0109082304        8.3450421642       23.8839018419
  H         7.6658485035       14.3935950589       22.0053402391
  H        12.1474004693        3.0504011861       24.2101727758
  H         5.7700633812       11.6196555079       24.2251198077
  H         6.3473069551        5.4831182729       22.9849451017
  H        -3.2417640279        9.7804929045       23.4487101048
  H         3.7341478566        7.0662135730       23.9900821429
  H         8.4304923473       -0.6604816471       24.0269020150
  C         3.2372405326        5.5211442268        9.1330874901
  C         4.5309696364        4.9375267143        9.0321547876
  C         3.0937517658        6.9319122805        9.3106955127
  C         5.7143963504        5.6870672644        9.3335678511
  C         5.5188176270        7.0976529280        9.4596257223
  C         4.2733942386        7.7395406157        9.4098317998
  C         4.1491338456        9.1883726510        9.5042877428
  K        11.4138455142        2.9341688220        9.9081299789
  K         0.0567314791        2.0215448389       11.4223378316
  K        -1.3450890853       11.2703485610        9.7003966529
  K         5.4729132512       12.8568541887        9.3781798936
