      468
2000
 Cu         0.0000000000        0.0000000000        0.0000000000
 Cu         0.0000000000        4.4270557290        0.0000000000
 Cu         0.0000000000        8.8542442710        0.0000000000
 Cu         1.2779405470        2.2135942710        0.0000000000
 Cu         1.2779405470        6.6406500000        0.0000000000
 Cu         1.2779405470       11.0677057290        0.0000000000
 Cu         2.5560344530        0.0000000000        0.0000000000
 Cu         2.5560344530        4.4270557290        0.0000000000
 Cu         2.5560344530        8.8542442710        0.0000000000
 Cu         3.8339750000        2.2135942710        0.0000000000
 Cu         3.8339750000        6.6406500000        0.0000000000
 Cu         3.8339750000       11.0677057290        0.0000000000
 Cu         5.1119155470        0.0000000000        0.0000000000
 Cu         5.1119155470        4.4270557290        0.0000000000
 Cu         5.1119155470        8.8542442710        0.0000000000
 Cu         6.3900094530        2.2135942710        0.0000000000
 Cu         6.3900094530        6.6406500000        0.0000000000
 Cu         6.3900094530       11.0677057290        0.0000000000
 Cu         7.6679500000        0.0000000000        0.0000000000
 Cu         7.6679500000        4.4270557290        0.0000000000
 Cu         7.6679500000        8.8542442710        0.0000000000
 Cu         8.9458905470        2.2135942710        0.0000000000
 Cu         8.9458905470        6.6406500000        0.0000000000
 Cu         8.9458905470       11.0677057290        0.0000000000
 Cu        10.2239844530        0.0000000000        0.0000000000
 Cu        10.2239844530        4.4270557290        0.0000000000
 Cu        10.2239844530        8.8542442710        0.0000000000
 Cu        11.5019250000        2.2135942710        0.0000000000
 Cu        11.5019250000        6.6406500000        0.0000000000
 Cu        11.5019250000       11.0677057290        0.0000000000
 Cu        12.7798655470        0.0000000000        0.0000000000
 Cu        12.7798655470        4.4270557290        0.0000000000
 Cu        12.7798655470        8.8542442710        0.0000000000
 Cu        14.0579594530        2.2135942710        0.0000000000
 Cu        14.0579594530        6.6406500000        0.0000000000
 Cu        14.0579594530       11.0677057290        0.0000000000
 Cu         0.0000000000        2.9513704860        2.0869457760
 Cu         0.0000000000        7.3785590280        2.0869457760
 Cu         0.0000000000       11.8056147570        2.0869457760
 Cu         1.2779405470        0.7379090280        2.0869457760
 Cu         1.2779405470        5.1649647570        2.0869457760
 Cu         1.2779405470        9.5920204860        2.0869457760
 Cu         2.5560344530        2.9513704860        2.0869457760
 Cu         2.5560344530        7.3785590280        2.0869457760
 Cu         2.5560344530       11.8056147570        2.0869457760
 Cu         3.8339750000        0.7379090280        2.0869457760
 Cu         3.8339750000        5.1649647570        2.0869457760
 Cu         3.8339750000        9.5920204860        2.0869457760
 Cu         5.1119155470        2.9513704860        2.0869457760
 Cu         5.1119155470        7.3785590280        2.0869457760
 Cu         5.1119155470       11.8056147570        2.0869457760
 Cu         6.3900094530        0.7379090280        2.0869457760
 Cu         6.3900094530        5.1649647570        2.0869457760
 Cu         6.3900094530        9.5920204860        2.0869457760
 Cu         7.6679500000        2.9513704860        2.0869457760
 Cu         7.6679500000        7.3785590280        2.0869457760
 Cu         7.6679500000       11.8056147570        2.0869457760
 Cu         8.9458905470        0.7379090280        2.0869457760
 Cu         8.9458905470        5.1649647570        2.0869457760
 Cu         8.9458905470        9.5920204860        2.0869457760
 Cu        10.2239844530        2.9513704860        2.0869457760
 Cu        10.2239844530        7.3785590280        2.0869457760
 Cu        10.2239844530       11.8056147570        2.0869457760
 Cu        11.5019250000        0.7379090280        2.0869457760
 Cu        11.5019250000        5.1649647570        2.0869457760
 Cu        11.5019250000        9.5920204860        2.0869457760
 Cu        12.7798655470        2.9513704860        2.0869457760
 Cu        12.7798655470        7.3785590280        2.0869457760
 Cu        12.7798655470       11.8056147570        2.0869457760
 Cu        14.0579594530        0.7379090280        2.0869457760
 Cu        14.0579594530        5.1649647570        2.0869457760
 Cu        14.0579594530        9.5920204860        2.0869457760
 Cu         5.2062364515        1.5203026737        4.1111917822
 Cu         3.8288453721        3.7963560936        4.1556753114
 Cu         6.4986863378       12.6890913826        4.0760738935
 Cu         2.6476416155        5.8858957189        4.1608869068
 Cu         3.9023913610       12.6649942744        4.0912836536
 Cu        11.5647001784        3.5635851526        4.1634582486
 Cu         2.6493041792       10.2742158254        4.1219412342
 Cu         1.4225798350       12.4981662455        4.2029916985
 Cu         5.1620059939       10.3165224210        4.0880375853
 Cu        12.6763602161        5.8902841476        4.1853166423
 Cu        10.2008184859        1.4527107114        4.1747300940
 Cu         2.4665129730        1.5346564049        4.1110987931
 Cu        14.0331947555        8.1587630664        4.1363385266
 Cu        12.7900914103       10.3174720380        4.2757476883
 Cu         7.7549321568       10.4072311268        4.1622139206
 Cu         3.9844023970        8.1191929482        4.1195518928
 Cu        12.7789224370        1.4268116782        4.1339485909
 Cu         7.6621586179        1.4160215310        4.1051489527
 Cu         9.0171733292        8.1955621262        4.1292335732
 Cu        11.4657355123       12.6228576415        4.2150684387
 Cu         8.9942337405       12.5120833067        4.1003610604
 Cu        -0.0286592207        5.9041251619        4.0352054048
 Cu        11.4946379086        8.1037276025        4.1481233434
 Cu         6.4912994547        8.2464153450        4.0763247188
 Cu         6.3640911196        3.6903668791        4.0938676831
 Cu         1.2934369311        8.1419418180        4.2985213076
 Cu        10.3696397302       10.4145346053        4.2296983875
 Cu         5.1427403207        5.8478294706        4.0813396600
 Cu        10.2660110417        5.8434062749        4.1227007636
 Cu        13.9865631361        3.7770595847        4.0957064475
 Cu        14.1283740831       12.4882182871        4.1672033130
 Cu        -0.0271108425        1.4428128757        4.1934880734
 Cu         1.2924349501        3.7433947942        4.0061238957
 Cu         0.0829369074       10.3596524897        4.1785544354
 Cu         8.9103021702        3.6799277442        4.1785770821
 Cu         7.6620501473        6.0042263902        4.1392351186
 Cu         3.9133110181        2.2467626669        6.2125629338
 Cu         5.1717749201        0.0231196121        6.3048033155
 Cu        12.8530092620        8.7833495599        6.4141570615
 Cu         5.1949973738        4.4405779219        6.1554312880
 Cu        11.5811384901        2.2404821137        6.2165357517
 Cu         8.9257267037        6.6748995368        6.2031791545
 Cu         3.9227394995       11.1144733472        6.1185389747
 Cu        12.7509447893        4.5184934604        6.4064782347
 Cu         6.4722042385       11.1423101941        6.1348132639
 Cu         2.6992541279        8.8676141347        6.2859331227
 Cu         1.4035868839       11.1053719739        6.1578791283
 Cu         7.7422568745       -0.0065306571        6.1803289701
 Cu         6.4218978054        6.7035670369        6.2255968246
 Cu         6.3954485995        2.2436791005        6.3028360997
 Cu         3.9491899789        6.7823029887        6.1824297331
 Cu         2.6632222228        4.3750152278        6.3103974514
 Cu         0.0489562641       -0.0242069999        6.2155223311
 Cu        11.6052497096       11.0939814772        6.2257156467
 Cu        10.1535870061        4.3844524149        6.2237251529
 Cu         7.6222799175        8.9460923362        6.2622068271
 Cu         2.6138806265        0.0231835031        6.2732769452
 Cu         5.1844579376        8.9027317590        6.1674228640
 Cu         1.3612613755        6.4640426177        6.2520620807
 Cu         8.8004847538        2.2415671426        6.1802931989
 Cu        12.8649278819       -0.0106418241        6.1364270121
 Cu        14.1394922692        6.5684161467        6.2544085815
 Cu        10.2685202467        0.0841861417        6.3119705236
 Cu        10.2367741688        8.8915145522        6.4814768173
 Cu         9.0764705595       11.1280050964        6.2292037950
 Cu        11.3954901430        6.6924975624        6.3278362126
 Cu        14.1047274954        2.2428268315        6.1223722018
 Cu         7.5848033609        4.3974413713        6.2659865134
 Cu        -0.0086842479        8.9155398916        6.3066011914
 Cu         1.3769733978        2.2471219668        6.2439851268
 Cu        14.0412947853       11.1460724448        6.2714745333
 Cu         0.0472168722        4.3377036769        6.0898479274
  O         3.4381993000       14.9631620705        9.3314701215
  O         2.8496349596       12.0557637290        9.3120966699
  O        10.7847095029       10.7215911589        9.3479483399
  O        -0.8432883632        1.9270080669        9.2110227146
  O         0.5488699723        5.1907038430        9.0836397188
  O         0.0541915061        7.9816778387        9.2482666824
  O        10.6699068093        7.2539120851        9.6624778995
  O        13.3846781275       12.4263909264        9.2840342997
  O         7.2464077799        9.9699929684        9.5686793125
  O        12.6646027618        5.0612970996        9.9682546381
  O        12.7195363696        8.8467307296       10.0751718362
  O         5.2034600896        2.4124821426       11.1656716488
  O        -0.2956555679       14.6097429901       12.1574345982
  O         7.9013215014        1.8720958583       10.7715512865
  O        11.6432637863        1.5326972551       12.1594794584
  O         2.1741474567        7.6795102741       13.3033613074
  O         4.0082780962       11.2395101197       12.0157692089
  O         6.6021434572       12.5345911176       11.8637457642
  O         2.4644296637        5.0061696760       12.9936501849
  O         9.0634011830        3.8343052804        9.5414735873
  O         8.8075038345        8.6824817872       11.1078707005
  O         1.6843742132        9.7472699694       11.5775801648
  O         6.6206863156        7.1628067522       12.7885268354
  O        12.2018386093       12.1283373068       11.5736936614
  O         5.4026943897        4.5884965840       12.8872758446
  O         4.6558280322        8.8289553725       13.3584446708
  O         5.0466363997       14.3490932602       13.5542316800
  O         0.9810233819        3.3810249431       14.7018935259
  O        -0.3080161043        4.3089809009       12.0970665770
  O        12.0561027170        8.3472316479       12.6343536801
  O        10.2852823784       10.4300744762       12.4865432878
  O         1.0240677766        8.1011049649       15.6548631344
  O         9.3078368206        0.7300785103       12.7406146489
  O         3.5841661359       12.4623616565       14.3736426736
  O        -0.7165355449       11.4953626237       12.4958558103
  O         9.8428265572        4.6009310112       11.8808663238
  O         6.6216122013        3.0140441844       14.9470946181
  O         8.0921316960        6.5459446971       14.7521130681
  O         6.7114993016       11.3749041231       15.0512397029
  O        10.7795800025        6.2297807565       13.9661275240
  O        13.1026684964        2.9885023425       13.8715833986
  O         4.7952929136        6.2145448141       15.7855188109
  O         5.3748757428        8.8125040872       15.9515269886
  O         9.0006371824       15.0133238704       15.2735824381
  O        14.2413497311        9.6041330282       14.3721475275
  O         1.1641904737        1.2183528652       16.5789716942
  O         5.1681184040        3.6318123040       17.6170958070
  O         7.8205123930       13.5292705842       17.0006871895
  O        -0.1674269991        5.7176230336       15.9213981162
  O         2.5959806215        5.5125973415       17.3006267673
  O         3.1889937915        9.5109862190       17.2978408757
  O        12.5953062946        6.8443607773       16.0576987233
  O         9.8153259195       10.9206793699       15.1684950971
  O         1.3402403294       11.8694451928       16.1411297651
  O        11.4928195907       14.5562398850       15.9713780786
  O        -1.7200387399       11.0502392080       16.7709964496
  O         2.6980545453        2.9995146740       18.2030827645
  O         7.2399739680       10.4153757216       18.0573437730
  O        13.9818749169        2.3463464936       16.3217297145
  O         8.2356862614       13.1101366338       19.6891057210
  O        11.3637523577       12.0677546783       17.5526062198
  O        11.0743748154        8.9865739656       16.9125165614
  O         9.0243383952        5.3826996210       18.7421764111
  O         4.0068025964       12.0720877222       17.6950216800
  O         6.3365779016        5.3238424007       19.5960711722
  O         8.6854457862        7.8645224278       17.2292222252
  O        13.4142597204        6.3479894290       18.4523294808
  O         2.7342115930        7.6751486869       19.2101310249
  O         5.5028510143        7.9158622652       19.5728337581
  O        13.8844470436        3.4857337223       18.5862052531
  O        -0.7414737701        9.0150961279       18.9366883311
  O         0.7469723043        3.3417066217       20.0801868380
  O         5.5938858070       12.8225942955       19.8272689042
  O        10.7982758882        9.2964531947       19.5985523530
  O         0.1201138872        1.2785091423       22.0514021543
  O         6.2998975605       10.1950780006       21.3623458874
  O         6.7406832133        3.9901558991       22.0218072713
  O         8.5683554665       15.7402213122       20.6534426879
  O        10.9481122772        4.6647556465       20.7228657331
  O        12.1596676123        7.1806554717       20.5278813628
  O         0.3914024302        7.4032897402       21.0562634865
  O        13.0099003538       10.3223948809       21.0362474276
  O         8.9933431103       10.7837972480       21.0738238144
  O         4.8618732951       14.9997201649       21.2964625495
  O         1.1838161810        4.6409613232       22.5758801148
  O        12.1171211799        2.1763546610       20.2642108618
  O        16.1714070380       11.6721282302       22.8822218484
  O         8.9859726046        5.1260296944       23.0486035057
  O        10.2877182776       11.2857409765       23.1101532854
  O        14.2322890938        6.0941980052       22.8247575672
  O         2.5138153211        2.4012740203       23.3339124157
  O         2.2416654847        8.2112922725       23.0888261342
  O        12.8511715077        8.4911056419       23.0226417867
  O        12.6963654361       12.4041848020       22.7924032050
  O        12.9449418141        1.7484834687       23.0440307965
  O         3.7626602909        5.6754040347       23.1027161003
  O         6.0792931673        7.4086362206       23.5183769682
  O         6.5790032347       13.2557916778       23.0126188085
  O         9.2113726364        0.4630161337       23.0755083126
  O        10.1990884153        8.9994613084       24.1907284389
  O         8.6957205682        7.6863414092       22.6117933432
  O         4.2512960568       10.0704887765       23.3344945694
  O        -0.1905916616        9.2720877660       24.2161407137
  H         3.7175884829        2.1139104066        8.5068647095
  H        11.4462519797       11.3562521441        8.9371778776
  H         3.2288989462       11.6746804421        8.4567684707
  H         0.9783181636        5.2084711623        8.1646693551
  H        10.3985449441        7.0435512447        8.7309960957
  H         0.1952241553        8.0470236005        8.2744413551
  H        -0.5771474431        1.9747373231        8.2400165632
  H         2.7209315214        6.4492142119        9.9198062872
  H         4.4762184587        4.5705500305        9.8956843395
  H         3.7330372887        8.8318221447        9.6473465977
  H         6.8972926083        5.0189629512        9.0607439959
  H        14.4183864218       14.1946812640        9.3110245335
  H         3.2794849411       13.9986319756        9.0720006781
  H         7.6473602100        7.3302691162        9.0537903361
  H         5.3275066181       10.4317953716        9.1921975269
  H        10.2165704536       10.3454369641        8.6329951161
  H        -0.9533169879        7.8926437473        9.3852457634
  H        -2.5858585946       12.7959047461        8.6049817474
  H        11.4900543502        7.8353915045        9.6491316944
  H         0.4280717742        6.1617011853        9.3012610400
  H         3.4671406672       11.9222952169       10.0325593020
  H        -1.8260860162        5.1951668314        9.4045974416
  H        12.0981612343        9.5567986535        9.6870718845
  H        12.1310875539        5.8945198628        9.8500359156
  H         4.5209756119        2.1743418777       10.4758914416
  H        -1.1360075040       15.0663373770       12.4265641067
  H         1.6190465877        8.2047780212       12.6647981108
  H        11.9520539217        2.1495735402       12.9161436627
  H         6.8521150475        2.0358418554       10.8563211284
  H        12.8794309167       12.2720600162       10.1222858980
  H         5.7818602237       12.1188561258       11.7432467415
  H         9.5653988988        8.1247265334       10.7546011591
  H         8.2721965062        9.1257353127       10.2698773765
  H         8.1810411999        2.6456120530       10.1897136592
  H         5.1399243695        3.2890587699       11.5067303154
  H         2.2255481818        5.9420893216       12.9705223680
  H        12.5533007996        8.7463376864       11.0431454642
  H         7.2168553310        7.5472022480       12.0838410143
  H        -0.4474779357       13.6127738110       12.2408951713
  H         9.0450395522        4.3769470246        8.7107256001
  H         4.3543499536       10.4325593583       12.4186358058
  H        10.6538292836        1.4056350641       12.2363739683
  H         6.3631661860       13.3292088124       12.3257463670
  H         3.4206922175        4.8742327505       12.8598289904
  H         5.1184049850       14.8761936098       12.6854374257
  H         3.7020887144       11.7612384125       12.8694305888
  H         3.7608815628        8.3523331080       13.1500028810
  H        11.8849362519       -0.2632856297       11.8629222454
  H        -0.8364158003        4.7185684299       11.2704290218
  H         1.8957934068        7.7433020775       14.2681334420
  H         5.4036976694        8.2673275580       13.0465175027
  H         0.2302327534        2.9810884529       14.0690248732
  H         0.9991729166       10.3619798509       11.9115107309
  H         1.6173956115        3.7269997957       14.0862288792
  H         5.9856729873        5.4436336081       12.6739416751
  H         9.5864012129        9.8438485383       12.0534064288
  H         9.2570121930        4.3868101223       10.2941865377
  H        11.4062285500       11.5325973941       11.7828921163
  H         2.5112188017       10.3025440211       11.5103449079
  H         0.5693878442        4.7820579846       12.1084769404
  H         7.2652605170        6.9906393789       13.6330050426
  H         8.5985238227        1.2829382321       12.2344591231
  H         5.9054816890        4.2580935782       13.6797926998
  H        11.3831909257        9.0685047000       12.6557568295
  H         5.5233493012       14.8359212446       14.2542675443
  H        13.6264801263       11.4691839346       12.4026951509
  H         0.8487424270        7.2311359656       16.0938350980
  H         6.6480763768       11.9064912584       14.2600006868
  H        11.2832419204        6.9359058389       13.4685036149
  H        12.6886986877        8.6660216711       13.3826272155
  H         4.0727611322       13.2873488443       14.1745248435
  H        10.0945184544       10.7433306889       13.4339908279
  H         4.9794359017        6.0008914292       14.8198732905
  H        -0.5583366386       11.3467555972       13.4912899920
  H        13.3529734172        3.8810489075       13.5633698548
  H         4.9679677242        8.9049433240       15.0203542326
  H         9.2654703949        4.0492969041       12.4249981643
  H         8.0772483669        6.9645953705       15.6729484091
  H         7.4959430419        2.5568103900       15.0021306412
  H         9.2283041315        1.0057421002       13.6646727162
  H         1.3287236104        8.6326963142       16.3976907623
  H        10.2977570856        5.2322101466       12.5227840779
  H        13.3723310082        2.8919118757       14.8009722823
  H         1.4206822321        1.7399015244       15.7369831767
  H         9.0224681881        6.5364958561       14.4800347594
  H         6.2186300363       10.5648567229       14.9638485120
  H         2.6763365056       12.7569723615       14.5973048021
  H         5.1511009818        7.1591406457       15.8208333852
  H         6.3053735779        3.0519012574       15.8780771951
  H         7.9773550413       12.5897747846       16.8143714258
  H        11.3654537225        6.1737371069       14.8120961517
  H        -0.4669707992        9.0415367945       14.9753720947
  H         4.5485841495        8.8697105471       16.5685719915
  H         4.9611128913        4.4700733267       17.1830914016
  H         8.8391324197       10.7538544932       15.2146162594
  H         8.5336373792       14.5062494253       16.0384144937
  H         0.4229636521       11.5091590615       16.2784745495
  H         9.9605878249       14.9656356195       15.5696399469
  H        15.6261221366        5.0352336102       15.3376225406
  H        -1.6315887174       10.1146627507       15.0157946210
  H        13.4873783621        6.7248837003       15.6792424384
  H         3.1395059882        5.6866633768       16.4807422526
  H         1.3075535098        0.2251363897       16.3575155852
  H        -0.1957560721        5.3848271498       16.8245872237
  H         7.9788918459       13.5686172628       17.9694548621
  H         2.9911809970        8.8541066009       18.0064528745
  H         2.2342764957        2.3299934506       17.7015273165
  H         4.3188137414        3.1822550374       17.8918602289
  H         6.4083542955       10.6059332263       17.6173642813
  H        14.8337476793        1.8208357975       16.4152874553
  H        11.7307440662       13.8567054445       15.3226055168
  H        10.3284198199       10.2005858256       15.6573421307
  H         2.4665840762        3.9388217186       17.8872545858
  H         3.5899627935       10.3686090993       17.6642929101
  H        11.6794721725        8.2446437725       16.6217044708
  H        12.7090036816       11.5950815115       16.9991395140
  H         2.5510404706        6.3424205468       17.8893434441
  H         2.0025365917       11.5967452218       16.8066218213
  H        12.4332693606        1.6123854872       16.2375685184
  H        12.7537923681        6.5113705588       16.9918586101
  H         4.4867251679       12.4757333012       16.9851508871
  H         8.9024998539       12.5443786497       20.1884629170
  H        11.2546196369       13.0344775036       17.3836273364
  H         6.0754621733        4.5453669698       18.9099293987
  H        10.8449890367       11.6490719606       16.7945150286
  H         8.8951281858        4.5954690841       18.2720500550
  H         7.4854144205       11.1682555164       18.7191225845
  H        -1.8343833457       10.3050460788       17.4094203458
  H         7.8776581914        8.3166907601       17.5643097630
  H        10.1140230626        8.6024757897       17.0154735538
  H         7.2777649385        5.5180915355       19.3594208487
  H        13.8839144326        2.7958613895       17.2347652170
  H         8.8996385948        7.0849992914       17.8006335272
  H         7.3905719570       12.9150026495       20.1286544921
  H         5.8041003331        8.3704463390       18.8386232147
  H         1.5744607823        3.2917174861       19.5754019358
  H         4.4797421323       12.5050896406       18.4680340257
  H        13.6994610371        5.4255037903       18.5002850874
  H         5.7427946124        6.9608582915       19.4344914559
  H         3.6262483678        7.7160764717       19.5741791599
  H         9.6223672143        5.1649737086       19.5168891958
  H        14.1839993919        8.2914239314       18.4022998945
  H        -0.5439499275        3.3405941366       19.0234896220
  H        10.9986950336        9.0250600817       18.7033408485
  H        12.9312963070        6.5523291918       19.3027201982
  H         2.1213029476        7.7199826951       19.9927366841
  H         6.4613450716        4.3452835168       21.1251636874
  H        -0.7817430016       14.8183310218       22.4308581638
  H         6.1205288378        9.4620658306       20.7212371409
  H        -0.4512087896        8.6179850563       19.7487065478
  H         0.2905156287        1.8394588314       21.3024758858
  H         5.5359461754       12.1238243159       20.5122378440
  H        13.3063591287        2.9831148718       19.2058102462
  H         0.9213497791        4.0026897591       20.8030201910
  H         9.5135030881       10.1477351957       20.5073854908
  H         8.5535497891        1.4583847648       20.6817086665
  H         5.4077823739       13.6818396797       20.2924216223
  H        13.6839081046       10.2594379245       20.3323922213
  H         7.0754603044        3.1140514817       21.7438546184
  H        11.5401377451        9.7612005415       19.9463512270
  H        11.4296914537        7.8210549646       20.3711924337
  H         8.1245588287       10.4195443496       21.3663102149
  H        11.5683102928        5.4586712664       20.7368897926
  H         5.2143560770        2.5953801379       21.6042184097
  H        10.4542536943        4.6366397128       21.5730292500
  H        13.0340463787       11.2538491051       21.3700881885
  H         0.5233922063       12.4691176529       22.4228413666
  H         5.6231655529       10.1725365830       22.0490168529
  H        11.7016952409        3.0679436831       20.4871433782
  H         8.2387049045        4.6390251793       22.5918131050
  H        -0.1134624983        6.9177351174       21.7539837855
  H         9.6590705614       11.2577694843       22.2805595624
  H         9.2035005352       15.7872389318       21.3623547555
  H         1.0673812188        7.8635367816       21.5539383239
  H        12.6325101221        7.3813233870       21.3741339641
  H         1.7063051762        1.8488072531       23.1356290722
  H         4.1038448801        1.7007434449       21.9164981297
  H         9.9188998065       12.0707889688       23.5714488928
  H         1.6879835656        3.9482656807       23.0316572907
  H         1.7858693395        5.4662215780       22.6016387370
  H        12.5768487964        1.8478625926       21.0782588636
  H        17.0387064876       11.7809207359       23.2452840098
  H        12.9249798073        9.1441819095       22.3109609795
  H        13.6194610482        6.2882548632       23.6028199524
  H         5.5868810705        8.2606733968       23.6018797383
  H         9.1057196529        4.5708060553       23.8665895654
  H         6.0043163691       13.9972930084       22.9480948442
  H        14.9843930086        5.4281907005       23.1679106568
  H        11.8644663916       11.9016075901       22.9920114641
  H         2.7564067534        7.3839203940       23.2519791460
  H        12.8850019897       14.0012706431       23.0011617226
  H         1.4179919638        8.2648754293       23.6686232365
  H         4.5800342153        6.2349128467       23.2016531749
  H        11.9564026678        8.7357631321       23.3594368120
  H        10.2879521287        9.9815769312       23.8685909453
  H         2.6350074400        2.1660029300       24.2766507283
  H         8.1200432660        0.4400931459       23.1691357387
  H         7.7454268570        7.7328337738       22.8550418251
  H         8.9437042768        6.7386083726       22.8388469139
  H         4.2314094301       10.5336391889       24.2331900745
  H         3.4541973839        9.5530407378       23.3922944184
  H         9.5212041548        8.6270611716       23.5963554184
  H        14.3265761247        8.9019336539       23.8669911312
  H        13.3309790656       12.0720054446       23.4633839807
  H        12.4132995039        1.9361489205       23.8948121101
  H         6.3837694124       12.9345581583       23.8862159860
  H         6.4300186341        7.1946594528       24.4171803981
  H        -0.1390462407       10.1503589279       23.7624127429
  H         3.8278330273        5.0234086038       23.8166909888
  H         9.3496394040        1.1079518700       23.7937014734
  C         3.8201249745        6.6376884408        9.7778356040
  C         4.8118128432        5.5947898411        9.7343620205
  C         4.3277667527        7.9242600338        9.6356179145
  C         6.0857471827        5.7703536793        9.2981614947
  C         6.6027016423        7.0769712959        9.3472639563
  C         5.7247945923        8.1901170370        9.4587201973
  C         6.0729022221        9.6474501496        9.4036621640
  K        11.8723706156        2.6352179020        9.6586724941
  K         1.3312580029        2.9408214388       10.2368299815
  K         0.3283194544       10.8286311682        9.4731063077
  K         8.7282385624       12.6522416677       10.0294549867
