      466
5000
 Cu         0.0000000000        0.0000000000        0.0000000000
 Cu         0.0000000000        4.4270557290        0.0000000000
 Cu         0.0000000000        8.8542442710        0.0000000000
 Cu         1.2779405470        2.2135942710        0.0000000000
 Cu         1.2779405470        6.6406500000        0.0000000000
 Cu         1.2779405470       11.0677057290        0.0000000000
 Cu         2.5560344530        0.0000000000        0.0000000000
 Cu         2.5560344530        4.4270557290        0.0000000000
 Cu         2.5560344530        8.8542442710        0.0000000000
 Cu         3.8339750000        2.2135942710        0.0000000000
 Cu         3.8339750000        6.6406500000        0.0000000000
 Cu         3.8339750000       11.0677057290        0.0000000000
 Cu         5.1119155470        0.0000000000        0.0000000000
 Cu         5.1119155470        4.4270557290        0.0000000000
 Cu         5.1119155470        8.8542442710        0.0000000000
 Cu         6.3900094530        2.2135942710        0.0000000000
 Cu         6.3900094530        6.6406500000        0.0000000000
 Cu         6.3900094530       11.0677057290        0.0000000000
 Cu         7.6679500000        0.0000000000        0.0000000000
 Cu         7.6679500000        4.4270557290        0.0000000000
 Cu         7.6679500000        8.8542442710        0.0000000000
 Cu         8.9458905470        2.2135942710        0.0000000000
 Cu         8.9458905470        6.6406500000        0.0000000000
 Cu         8.9458905470       11.0677057290        0.0000000000
 Cu        10.2239844530        0.0000000000        0.0000000000
 Cu        10.2239844530        4.4270557290        0.0000000000
 Cu        10.2239844530        8.8542442710        0.0000000000
 Cu        11.5019250000        2.2135942710        0.0000000000
 Cu        11.5019250000        6.6406500000        0.0000000000
 Cu        11.5019250000       11.0677057290        0.0000000000
 Cu        12.7798655470        0.0000000000        0.0000000000
 Cu        12.7798655470        4.4270557290        0.0000000000
 Cu        12.7798655470        8.8542442710        0.0000000000
 Cu        14.0579594530        2.2135942710        0.0000000000
 Cu        14.0579594530        6.6406500000        0.0000000000
 Cu        14.0579594530       11.0677057290        0.0000000000
 Cu         0.0000000000        2.9513704860        2.0869457760
 Cu         0.0000000000        7.3785590280        2.0869457760
 Cu         0.0000000000       11.8056147570        2.0869457760
 Cu         1.2779405470        0.7379090280        2.0869457760
 Cu         1.2779405470        5.1649647570        2.0869457760
 Cu         1.2779405470        9.5920204860        2.0869457760
 Cu         2.5560344530        2.9513704860        2.0869457760
 Cu         2.5560344530        7.3785590280        2.0869457760
 Cu         2.5560344530       11.8056147570        2.0869457760
 Cu         3.8339750000        0.7379090280        2.0869457760
 Cu         3.8339750000        5.1649647570        2.0869457760
 Cu         3.8339750000        9.5920204860        2.0869457760
 Cu         5.1119155470        2.9513704860        2.0869457760
 Cu         5.1119155470        7.3785590280        2.0869457760
 Cu         5.1119155470       11.8056147570        2.0869457760
 Cu         6.3900094530        0.7379090280        2.0869457760
 Cu         6.3900094530        5.1649647570        2.0869457760
 Cu         6.3900094530        9.5920204860        2.0869457760
 Cu         7.6679500000        2.9513704860        2.0869457760
 Cu         7.6679500000        7.3785590280        2.0869457760
 Cu         7.6679500000       11.8056147570        2.0869457760
 Cu         8.9458905470        0.7379090280        2.0869457760
 Cu         8.9458905470        5.1649647570        2.0869457760
 Cu         8.9458905470        9.5920204860        2.0869457760
 Cu        10.2239844530        2.9513704860        2.0869457760
 Cu        10.2239844530        7.3785590280        2.0869457760
 Cu        10.2239844530       11.8056147570        2.0869457760
 Cu        11.5019250000        0.7379090280        2.0869457760
 Cu        11.5019250000        5.1649647570        2.0869457760
 Cu        11.5019250000        9.5920204860        2.0869457760
 Cu        12.7798655470        2.9513704860        2.0869457760
 Cu        12.7798655470        7.3785590280        2.0869457760
 Cu        12.7798655470       11.8056147570        2.0869457760
 Cu        14.0579594530        0.7379090280        2.0869457760
 Cu        14.0579594530        5.1649647570        2.0869457760
 Cu        14.0579594530        9.5920204860        2.0869457760
 Cu         3.7816025875       12.5092814440        4.1579788670
 Cu        11.5077295266       12.5229521346        4.1126626770
 Cu         2.5581582211        1.4954818457        4.1110981757
 Cu         5.0814511116        1.4316504891        4.0935475205
 Cu         2.4708059686        5.8964586751        4.1472623432
 Cu         3.8575275130        3.7303611658        4.0650007599
 Cu         6.4579161558       12.5349417335        4.1114351299
 Cu         1.1885608154        3.7530193415        4.1984841995
 Cu        12.8303523693        1.4604849680        4.2030931861
 Cu        14.0963539332        3.8969347390        4.1410991077
 Cu        10.2599032646        1.4896582439        4.1234442474
 Cu         8.9037370990        8.0956761350        4.1124165950
 Cu        12.7711583193        5.9757457226        4.2009710665
 Cu         0.0398603806        5.9449051963        4.2314394792
 Cu        10.1989325938       10.3728757099        4.0720715351
 Cu         8.9719082009       12.5818679914        4.1764610954
 Cu         5.0139220065       10.3259318166        4.1235834242
 Cu         1.3694697939        8.2012664643        4.1621332365
 Cu         5.1157171921        5.9687567991        4.1541432393
 Cu        10.2325802390        5.8680111645        4.0673761258
 Cu         2.5393666381       10.4020015980        4.1036808341
 Cu         7.6896007795       10.3509115194        4.1595387920
 Cu         3.8315123919        8.0816350538        4.0875444195
 Cu         7.6746967490        1.5521587539        4.1311543625
 Cu         6.3274125396        8.1977825844        4.2271423390
 Cu         0.0476348409       10.3623772016        4.0471012212
 Cu         6.3602694205        3.7943539431        4.1181361115
 Cu         1.3215096039       12.6190229386        4.1844233399
 Cu        12.7716751511       10.3214563990        4.2599498635
 Cu        11.5178961689        3.7124286113        4.1473174348
 Cu        14.0607100823       12.5198393776        4.2749934319
 Cu         9.0134951730        3.7883316744        4.0763482774
 Cu        -0.0363046104        1.4748298966        4.1813457616
 Cu        14.0048160538        8.1425957996        4.0698148392
 Cu        11.5747615108        8.1887799426        4.1326085961
 Cu         7.7149424278        5.9037377128        4.3770976367
 Cu         2.7427007761        0.0582351882        6.3066591435
 Cu         5.1790995372        0.0625577543        6.2473047881
 Cu        12.8544277121        0.0819301567        6.2239471835
 Cu         1.3877878250        2.2926337589        6.2113829574
 Cu         5.0624830286        4.4942244265        6.1624549901
 Cu         3.8449998645        2.3019500050        6.3359846009
 Cu         9.0125236919        6.5996453677        6.2858174550
 Cu        14.1167916023       11.0530169676        6.2561575765
 Cu        10.3279696012       -0.0014429216        6.1957745862
 Cu        11.5547775753       11.0715818339        6.2971267395
 Cu        14.1602427592        2.2556462581        6.2239783655
 Cu         6.5032059632        2.0893235238        6.1079543267
 Cu         1.2489087253       11.0890750468        6.2737678727
 Cu         3.7456059282       11.0556500962        6.2254263681
 Cu         6.3933071699        6.7140770034        6.2587195265
 Cu         3.6956849358        6.6889605562        6.2564865658
 Cu         1.2299220242        6.6757885864        6.3488705792
 Cu        -0.0526972087        8.8454393975        6.0823186293
 Cu         7.7373836755        8.9079185318        6.2008241172
 Cu         9.1332441559        2.2604756983        6.1591729054
 Cu        10.3751941067        4.4796770344        6.2325895737
 Cu         2.5883252805        4.4475824135        6.1525438271
 Cu        10.3382811560        8.9141131019        6.0353687309
 Cu        11.5695523717        6.7557362904        6.2985577511
 Cu         0.0351581510        4.4368248532        6.5326946210
 Cu        14.0235900854        6.6898795919        6.3711461346
 Cu         4.9993252450        8.9567836550        6.2110510943
 Cu         8.9411532100       11.1450258732        6.3115281619
 Cu         7.7600117399        0.0041042501        6.1893458063
 Cu         6.4262147439       10.9870147184        6.2837213687
 Cu        11.5377754831        2.2260510453        6.2091498640
 Cu        12.7856227908        4.5059744171        6.2854446265
 Cu         7.6526418922        4.3346458227        6.2739035396
 Cu         2.4324424986        8.8059293520        6.2680337195
 Cu        12.8167586631        8.9689244331        6.2695142313
 Cu         0.1004884090        0.1460268566        6.2253164378
  O        15.4627102325       -5.3641548369        9.5781425329
  O        11.0969511507        6.4920725790        9.4044793896
  O         6.7160309150       -1.0730503535        9.2910029289
  O         0.2659914239        0.2405048438        9.3707089758
  O         7.0458213585        9.4713997022        9.4441249883
  O         2.2729324325        6.1589305430        9.5665692600
  O        13.8474977135        6.7272420245       11.7154315991
  O        13.9636241981        4.2722364410        9.9208946612
  O         8.0172257789        6.9978700984        8.7157781483
  O        14.2697595213       -1.6318598894       12.9366890320
  O        16.5512110251        3.6777449032        9.8870676995
  O        -4.4477886753        0.2703058673        9.4354565050
  O         3.8310860340        8.7521420070        9.4915658721
  O         6.2749399840       -0.4053917826       13.2291016290
  O        13.1355141479        1.5940762478       10.7613880199
  O         9.0650548908        0.8503400718       11.9335385075
  O         5.2136514935        7.2314992521       11.9623931167
  O         9.0037806456        7.7636000246       11.3793327471
  O         1.2981801723        9.1380763812       12.0524575038
  O         4.7183776997       -1.3455111622       11.4865986222
  O         2.8219395355       -0.3667937544        9.5771581869
  O        11.4068611937        6.4462876508       12.2921043920
  O        13.8026601264       11.0813680016       10.2748389813
  O         4.3324980667        2.8113462555       13.2385325626
  O         6.9438465114        2.1795559356       12.9632804519
  O         3.6371059606        5.2179520520       12.6831034327
  O         7.7366653179       10.5056662759       12.4122730173
  O        14.5933732924        7.5446319733       14.0070385520
  O        11.6479024211        9.2751309835        9.4171434576
  O         3.1857117318        0.1648616136       14.5905721807
  O         1.5708588800       -0.9906137059       12.6906432616
  O        12.8719492480        2.0979548547       13.5312621755
  O        10.5709694944        0.5771542444       14.2857241610
  O         1.8167732082        1.8872469597       11.8347562502
  O         0.2743401145        9.9990000490       15.0363093538
  O         3.9167842564        9.6653250317       12.9633859557
  O         9.3089212885        1.2944140222       16.6136040735
  O        11.1060595313        4.5961680221       14.4423829555
  O         7.6942514852        6.5180796408       13.3216152363
  O         8.3880099774        4.0257759610       14.3809035629
  O        14.6631728489        2.3644643767       15.7845908208
  O         1.8930866719        5.9418058884       14.5971314299
  O        12.1662661411       11.7661563572       14.9909402263
  O         4.7872286543        4.0332857581       15.7096718669
  O         1.7873107132        9.6376168961       21.6992884654
  O         1.4266159748        0.7457641442       16.3895279714
  O         5.9455697218       -0.7889969211       15.8706080025
  O         0.6167152823        3.4936900073       13.5124509615
  O         5.8213896169        1.6680208395       17.0114414901
  O         8.0776533546        8.7685736629       14.5376421389
  O        12.1529938096        7.1570281386       15.6635126413
  O         1.8997306688        8.1732262115       16.5199026126
  O         2.7510736452        5.1444952316       17.1457263458
  O         0.2839827037       11.5286290584       17.2447405156
  O        13.2056329426       12.3907715151       17.5367509133
  O         1.8929021311       10.9434096553       19.1154083491
  O         3.2240740003        1.7841259211       18.4612433584
  O         7.0473418270        4.8656445731       17.1814949278
  O        13.1426998136        2.3631474691       18.1088835865
  O         5.7058467943        9.4028525092       15.6415346199
  O        10.5961914903        9.2875581611       15.7755526457
  O        12.8084519790       11.3303891245       20.0722868949
  O        12.0006824052        4.8010161002       18.3201615825
  O         9.4566980771        3.8179908750       17.4072294431
  O         2.5190829446       13.2099875858       20.2852299349
  O         6.7314597293        1.6385609123       19.7535841330
  O        13.5557720063        7.0368253834       18.0178658261
  O         4.4479200881        7.1001611649       19.9082886677
  O         7.2681034719        6.7929129228       19.3455292135
  O        14.8243554780        3.6106956679       19.9266561806
  O         0.4340622759        5.9169094346       19.1668120784
  O         5.0430020309       13.1645661841       21.3382606590
  O         4.8808270104        4.3356922069       19.2034422204
  O        13.1741068062        8.7581626104       20.0631342033
  O         0.0954782373        1.2448363173       21.3681071943
  O         7.2335788796        5.9516179392       21.9177239799
  O         9.3400786585        6.7135601900       23.1051292563
  O         2.9157824157        6.5922865872       22.0938306876
  O        10.9225339491        6.8603244675       20.6272623853
  O         7.7376959842        9.3356382123       20.1290709101
  O         0.1145564938        7.8497767037       21.1172842718
  O         4.0595747690        9.1985042512       18.1424075137
  O        -1.1024773657        6.6477498443       22.9695438358
  O         6.1447292523       16.6744550244       21.5213347056
  O        13.2648801301       12.9251067779       22.0704472049
  O         4.7119102170       10.2629027484       22.4632804651
  O        12.9550113420        4.8239229147       21.2769581196
  O         5.6004352038        7.6287927342       22.9276036931
  O         9.9788048098       11.1176410245       19.0618085182
  O         1.8494964072        2.3312009901       23.8903047809
  O        19.0275353311        4.0281151120       23.0658929488
  O         1.5455749390       11.4335477258       23.7360172711
  O        12.9843864640        8.9777314545       24.0579334941
  O        10.8502263994       12.8309095311       22.8992019691
  O        12.0553227097        3.1854331140       23.4168622648
  O         8.6282775200       13.1313367855       21.0702780283
  O         5.7387380664       11.3877759516       19.5334506596
  O         7.1279933008       12.2824960119       23.0832099886
  O         9.4054360460        4.0122650165       22.9032737452
  O        10.6680427392        9.7435191063       23.1437265504
  O         8.0665484102        9.6591135658       22.8597298410
  O         3.2121782820       13.2667971249       23.6482079459
  O        -1.0341492081       11.2343394173       23.9428593568
  H         6.3603303082       -0.6198403467        8.5226880773
  H         7.4603840812        8.6012864159        9.1023482830
  H         2.4592664458        5.9611723211        8.5589689645
  H        15.1506846508       -5.4630651737        8.6579878069
  H        13.7462529150        4.7216155192        9.0258396797
  H         4.1700983382        2.7572479697        9.4616037602
  H         0.8419266713        7.2395335017        9.6414089258
  H         5.9740235868        1.3974403370       10.0125134015
  H         4.6536072839        5.1700748681        8.6817095833
  H         8.4173911683        1.8537784192        9.0136137552
  H        11.3209431781        6.2002855052       10.3130296309
  H        10.2567708171        6.0171806469        9.2540811984
  H         6.0014597931        6.9783879930        8.5694010754
  H         8.8597791057        4.2594185640        8.2585596968
  H         0.2216876963        0.6999123002        8.4907740955
  H         6.7699268501       11.2751425720        9.0426619306
  H         2.0100386479        5.1672558754        9.8582894060
  H        -1.2941991522        7.3580783641       11.0214923410
  H        15.6631876581        4.1183511326        9.8570261629
  H        -3.6156933696        0.7772010233        9.6789676300
  H        13.8119305288        4.9950213464       10.6223968051
  H         6.0938015099        9.2528204637        9.4571771408
  H        10.9505919418        0.1678533945        8.4623846216
  H         6.7621174339       -1.2092630316       12.9544925182
  H        -0.4054637861        0.7104530360        9.9349985181
  H         3.6869596250        8.4961449204        8.5491180929
  H        13.9590407319       -1.9181344387       11.9493721269
  H        13.2786978350        2.5055836259       10.4281987075
  H        12.8647844246        6.9345208986       12.1197824241
  H        13.4997591290       -1.7087179232       13.5490086073
  H         8.4420084636        1.5485117255       12.2125897584
  H         8.5937737461        7.3121298639       12.1964360300
  H         9.5349292085        1.1380166099       11.1470749017
  H         2.9912274673        0.0794820475        8.7062159286
  H        11.2124556796        5.6695733783       12.8966850922
  H        10.5838792719        6.9300747924       12.1562950555
  H         5.4733575347       -0.4518655938       12.6570906775
  H         1.4177807070        8.2154466412       11.7395768065
  H         4.0079996473        7.8612079352        9.8760432062
  H         5.3061422491        2.6467432001       13.0370890392
  H        16.4918991405        3.0678715543       10.7622224918
  H        13.2525363379       -2.8617930572        9.8584493741
  H         4.5137083060        6.5378765606       12.1450616877
  H         0.8180264915       -4.3256595228       12.8956651260
  H         4.8723498243        8.1269114830       12.2415438340
  H         8.6761770993        7.3516957580       10.6017739860
  H         5.5829385659       -1.3295999859       10.9386817422
  H         4.0659074128       -0.9963964626       10.8187528456
  H         7.2516307691       -3.2534425055       11.7164642559
  H        13.0631021566        1.6743898507       11.7728474528
  H         3.3420234027        5.2149627481       11.7196507630
  H         7.3193335769        2.6615862770       13.7285142109
  H         3.9796420614        4.2339448944       12.8304949305
  H         0.6501565223       -1.2521874970       13.0900411475
  H        13.8070284123       11.9628572891        9.8190765603
  H        11.5859771239        9.3032802455        8.4869592138
  H         3.8916645381       -0.3225532375       15.0984800028
  H         2.7163408782       -0.4315657009       13.9464245929
  H         1.8883767959       -0.0287145036        9.7751314849
  H        10.1125349116        0.6414857945       13.3458786236
  H         4.3954285833        3.1130856891       14.2468861997
  H        14.5106106250        7.2118665998       13.0338877151
  H         6.5962921784        1.2793661178       13.2981385187
  H         1.4121515857       -0.0443834483       12.4919204041
  H         8.0184337185        9.8105661893       13.1299094844
  H        10.1233308647        4.3338552808       14.3580402713
  H        15.2347931091       10.7015662696       14.4644648895
  H         7.7718737843        7.2681878649       14.1210774681
  H        -0.3827887693        9.2605591947       14.9408207075
  H        -0.0927071671        6.9145634609       14.4358709529
  H         2.7806985343        2.1539035114       11.9766058257
  H        12.0342751411        1.6285556463       13.8545882360
  H        11.6490234958        8.2937589521        9.6061420108
  H         4.1451474418       10.5138065654       12.4377412491
  H        12.5807310349        3.0296225555       13.7430808193
  H         2.6215358653        5.8878710659       13.8919629273
  H         5.5854953624        4.4791819597       15.9949158312
  H        15.2364857018        1.5775383154       16.0187124527
  H         9.7966422565        1.0370556599       15.7979866284
  H        11.0016543737       -0.2992745177       14.4425392365
  H         8.0481058845        4.8462107146       13.9193063051
  H        14.0298735380        2.0581330345       15.1061908215
  H         8.3222456475        4.2805990747       15.2988942585
  H         6.7539626440        6.7137701849       13.0848229999
  H         1.4987942147        2.4691842594       12.6148482072
  H         2.9578590485        9.4355717056       12.7520095823
  H         1.9253192427        0.6555557225       15.4742792170
  H         4.0825931957        4.4173073795       16.2818757668
  H         9.2807557185        0.5746100493       17.2237425466
  H        11.1528024157        5.0540572375       15.3690125014
  H         5.8969211949       12.5173370909       14.8647455737
  H         1.2793313886        8.7533636012       21.5491368604
  H         2.1302078878        6.7912468193       15.0076934364
  H        11.6933164973       10.8846042302       15.1582474579
  H         7.3079303400        9.0126538519       15.1308046128
  H         0.2959069013       10.8209854727       16.5775142214
  H        12.5846302015       12.0862389310       15.8462263057
  H        15.6805709083        3.2663401752       14.4060792101
  H         5.2599951542        2.1444382140       16.2785042561
  H        12.7344742345        7.1338895714       14.8508112863
  H         2.7351043909        9.5121037516       21.7354091808
  H         1.3083882278       -0.2097680148       16.6568309200
  H         2.3587080387        5.2110483779       16.2232865519
  H         0.7642809798        4.4419501818       13.4730551427
  H         5.9375088037       11.5210515361       16.1525003831
  H         6.3858236477        4.6567396731       17.8401026916
  H        13.7407495209        2.4292307791       17.3128445337
  H         1.5834103483        8.9433331006       15.9786186491
  H         6.0967946662        0.7969006654       16.6588633656
  H         8.9076512128        8.9081963862       15.0790869215
  H         2.5299415311        1.9197036574       17.7787148827
  H        14.1575825355       12.2806246527       17.3089352366
  H        11.1813677314        8.4834887060       15.8181032125
  H         4.1567753644        1.6809277181       18.0717271195
  H         2.6410684354        8.5118197528       17.0505501618
  H        12.8171673595        7.0227300167       16.3520932359
  H        12.9402036688        0.0219175285       17.8243554919
  H         0.7966691644       11.1881292477       18.0605033138
  H         1.6003956095       10.4402361753       19.9215324617
  H         3.1324843756        6.0106775980       17.3017619955
  H         4.9281828345        9.2845457272       15.0853267483
  H         7.9009865208        4.3653377572       17.4699916421
  H         2.9187081020       13.8859781307       19.5461495132
  H        12.9642380091       11.7653837920       19.2228010065
  H        13.0488190190       11.8913348699       20.8550699169
  H         6.4665163665        1.6003043719       18.7971952564
  H        12.5168737487        3.9396570811       18.1373128093
  H         9.7132252010        2.8523212208       17.2687233556
  H        10.6787522517        9.6982349664       16.6266783530
  H         2.1520799400       11.7980499657       19.5784598732
  H        13.7333756403        2.3749149427       18.9033083816
  H        10.3197446786        4.2470133888       17.5743736456
  H         7.4636707815        1.0061349164       20.0021058702
  H         5.2770387117        9.2202336197       16.5251044662
  H         7.2346539797        6.4590966458       18.3884661761
  H        12.9923546856        6.2733887442       18.2409068161
  H         4.2832580848        3.5971321333       19.0465400556
  H         3.3583577519       13.0867494870       20.8378410075
  H         7.3784975340        7.7832956163       19.4394599019
  H        11.9603934185        4.7946210000       19.2822146621
  H        12.8302867361        9.7147605673       19.8266285145
  H        -0.2938580644        6.3443162142       18.5592773119
  H         5.5009673530        7.1257605511       19.7968484994
  H        -0.2124771221        4.4591492577       19.4121460390
  H        13.4499995302        7.6873422619       18.7718892653
  H         7.3529496757        6.0902703525       20.9251262166
  H         0.8650758888        0.8196065807       20.9248046282
  H         4.2912578388        6.1367459139       19.5409926880
  H         3.5730728099        6.7747440416       21.3643246353
  H         5.2878580707       12.4538902325       20.6702745178
  H        -0.0659249706        2.0996428076       20.8440329413
  H         1.1600080045        5.7066924790       18.5487290686
  H        14.1742990508        3.9796635582       20.5176977945
  H         9.7001266471        5.8008301675       23.2245333485
  H         5.5440201648       13.9511079483       21.1271717559
  H         5.3577486184        4.1318651023       20.0342310157
  H         7.9534629575        6.3860661655       22.4590464063
  H        12.3484647147        8.2766490730       20.3399758723
  H         4.3198346677        8.5976299196       18.8475071341
  H        -0.7351078754        8.1746776464       20.6492512857
  H         7.6367334907        9.2627565444       21.1665215392
  H         3.6267769054       10.0337331183       18.5150592969
  H        10.0715692870        7.2189111843       20.3140851553
  H         6.7068898953        4.1566238673       21.7542535214
  H        -1.2266830384       13.4225912672       21.7498557397
  H        15.8842984665        7.1971183671       20.4585361467
  H        10.9262251990        5.9562810374       20.9952684680
  H        10.8834500960       11.1366830859       19.4572575404
  H         3.3140048456        6.8980638110       22.8757519302
  H        12.5369086552        4.1515718249       21.8420311121
  H         9.3665335424        7.2841828270       23.8778105366
  H         6.1203667097        6.8418819469       22.5111719743
  H         8.5738298318        9.7967744234       19.8756376166
  H        -0.7258630776        6.1239597542       23.6757493240
  H         1.0373443215        1.9815006478       23.4380679544
  H         6.6929304400        2.7707897857       20.9569761836
  H        -0.4389324683        7.0104941635       22.3018730225
  H         9.4634628976       11.7746519683       19.5970291532
  H        13.5722130294       12.3174360763       22.8440268612
  H         4.5766640257       10.5671407095       23.4246187138
  H        13.3967238073        5.5155425716       21.8330853722
  H         5.2665937436        9.3765056048       22.6104468875
  H        13.2274298738        8.0202661798       23.8442046135
  H        18.6372283901        4.7809012715       22.6581276441
  H         5.2805697964       10.9117731949       18.8439255008
  H         5.4573829233        7.4304280606       23.9028729115
  H         8.0437586398       12.6892533789       21.7309532477
  H        11.8103069725       12.9943920150       22.5296686190
  H        19.5622764549        3.6710414072       22.3458840370
  H        12.2911291545        2.2353113734       23.7229150184
  H         1.7482336487       10.6014074678       23.1616672441
  H         2.2282823925        3.0727938957       23.3021012167
  H         6.1137984506       12.3696915574       22.8307576018
  H        10.5793536835       10.7222566403       23.2663701193
  H        12.0638749608        9.2381545347       23.6384754085
  H         2.3137549817       12.0578412549       23.5378430643
  H         9.9418999992        3.1700624394       22.9732331676
  H         7.7013582161       10.6155320431       22.9708682361
  H         7.7236245926        9.1024256217       23.5870493754
  H         9.7766870279        9.4199355209       23.0808992408
  H         2.7174900161       14.1561981049       23.6837684458
  H        10.7928949679        0.0216358068       23.7266304250
  H         3.7552721060       13.3463753197       22.8744107952
  H        14.0214243031       10.1982735537       24.0521677800
  H        11.8715200452        3.6775658247       24.2807126753
  H        -0.0229470523       11.4129193630       23.6933750180
  H         9.4222814590       13.1746365837       21.6623354500
  H         6.4341413667       10.8083520266       19.9037617128
  H         7.2134420715       12.4547149245       24.0501026667
  H         8.9687983936        4.0983171149       23.7564453305
  C         6.2977487408        2.2688971413        9.4451856663
  C         5.1883886181        3.1432966045        9.3441570923
  C         5.4177710572        4.4537024221        8.8379954089
  C         7.6273056634        2.6463447424        9.0117182407
  C         6.7555493162        4.9099025234        8.5590040014
  C         7.8384952057        3.9879630872        8.5396762313
  C         6.9080431440        6.4118854239        8.4822320410
  K         1.5404486332       -2.7436734463        9.9252003879
  K         9.8155697717       11.0475231773       10.3633259440
