      466
2999
 Cu         0.0000000000        0.0000000000        0.0000000000
 Cu         0.0000000000        4.4270557290        0.0000000000
 Cu         0.0000000000        8.8542442710        0.0000000000
 Cu         1.2779405470        2.2135942710        0.0000000000
 Cu         1.2779405470        6.6406500000        0.0000000000
 Cu         1.2779405470       11.0677057290        0.0000000000
 Cu         2.5560344530        0.0000000000        0.0000000000
 Cu         2.5560344530        4.4270557290        0.0000000000
 Cu         2.5560344530        8.8542442710        0.0000000000
 Cu         3.8339750000        2.2135942710        0.0000000000
 Cu         3.8339750000        6.6406500000        0.0000000000
 Cu         3.8339750000       11.0677057290        0.0000000000
 Cu         5.1119155470        0.0000000000        0.0000000000
 Cu         5.1119155470        4.4270557290        0.0000000000
 Cu         5.1119155470        8.8542442710        0.0000000000
 Cu         6.3900094530        2.2135942710        0.0000000000
 Cu         6.3900094530        6.6406500000        0.0000000000
 Cu         6.3900094530       11.0677057290        0.0000000000
 Cu         7.6679500000        0.0000000000        0.0000000000
 Cu         7.6679500000        4.4270557290        0.0000000000
 Cu         7.6679500000        8.8542442710        0.0000000000
 Cu         8.9458905470        2.2135942710        0.0000000000
 Cu         8.9458905470        6.6406500000        0.0000000000
 Cu         8.9458905470       11.0677057290        0.0000000000
 Cu        10.2239844530        0.0000000000        0.0000000000
 Cu        10.2239844530        4.4270557290        0.0000000000
 Cu        10.2239844530        8.8542442710        0.0000000000
 Cu        11.5019250000        2.2135942710        0.0000000000
 Cu        11.5019250000        6.6406500000        0.0000000000
 Cu        11.5019250000       11.0677057290        0.0000000000
 Cu        12.7798655470        0.0000000000        0.0000000000
 Cu        12.7798655470        4.4270557290        0.0000000000
 Cu        12.7798655470        8.8542442710        0.0000000000
 Cu        14.0579594530        2.2135942710        0.0000000000
 Cu        14.0579594530        6.6406500000        0.0000000000
 Cu        14.0579594530       11.0677057290        0.0000000000
 Cu         0.0000000000        2.9513704860        2.0869457760
 Cu         0.0000000000        7.3785590280        2.0869457760
 Cu         0.0000000000       11.8056147570        2.0869457760
 Cu         1.2779405470        0.7379090280        2.0869457760
 Cu         1.2779405470        5.1649647570        2.0869457760
 Cu         1.2779405470        9.5920204860        2.0869457760
 Cu         2.5560344530        2.9513704860        2.0869457760
 Cu         2.5560344530        7.3785590280        2.0869457760
 Cu         2.5560344530       11.8056147570        2.0869457760
 Cu         3.8339750000        0.7379090280        2.0869457760
 Cu         3.8339750000        5.1649647570        2.0869457760
 Cu         3.8339750000        9.5920204860        2.0869457760
 Cu         5.1119155470        2.9513704860        2.0869457760
 Cu         5.1119155470        7.3785590280        2.0869457760
 Cu         5.1119155470       11.8056147570        2.0869457760
 Cu         6.3900094530        0.7379090280        2.0869457760
 Cu         6.3900094530        5.1649647570        2.0869457760
 Cu         6.3900094530        9.5920204860        2.0869457760
 Cu         7.6679500000        2.9513704860        2.0869457760
 Cu         7.6679500000        7.3785590280        2.0869457760
 Cu         7.6679500000       11.8056147570        2.0869457760
 Cu         8.9458905470        0.7379090280        2.0869457760
 Cu         8.9458905470        5.1649647570        2.0869457760
 Cu         8.9458905470        9.5920204860        2.0869457760
 Cu        10.2239844530        2.9513704860        2.0869457760
 Cu        10.2239844530        7.3785590280        2.0869457760
 Cu        10.2239844530       11.8056147570        2.0869457760
 Cu        11.5019250000        0.7379090280        2.0869457760
 Cu        11.5019250000        5.1649647570        2.0869457760
 Cu        11.5019250000        9.5920204860        2.0869457760
 Cu        12.7798655470        2.9513704860        2.0869457760
 Cu        12.7798655470        7.3785590280        2.0869457760
 Cu        12.7798655470       11.8056147570        2.0869457760
 Cu        14.0579594530        0.7379090280        2.0869457760
 Cu        14.0579594530        5.1649647570        2.0869457760
 Cu        14.0579594530        9.5920204860        2.0869457760
 Cu         3.7510392464       12.6486551553        4.2711830480
 Cu        11.4283391676       12.5867051672        4.1569827699
 Cu         2.3992840860        1.6063324739        4.1392972147
 Cu         5.0290023930        1.4918393820        4.1868668465
 Cu         2.5863299924        5.9130868664        4.1524367229
 Cu         3.8006911325        3.7168813486        4.1199277982
 Cu         6.2961167364       12.5724654048        4.1894662357
 Cu         1.2705285114        3.7411655645        3.9953659854
 Cu        12.7632748682        1.4995056692        4.1040194052
 Cu        14.0010609499        3.6637564692        4.2326917917
 Cu        10.1347614999        1.4870504143        4.1062484890
 Cu         8.9481891050        8.1844232116        4.1173462399
 Cu        12.7949429497        5.9017939324        4.1621971335
 Cu        -0.0095008653        5.8747059736        4.1317347766
 Cu        10.2036793463       10.3537881050        4.0423119735
 Cu         8.8417839924       12.6157969792        4.0563011462
 Cu         5.0508188517       10.3340790946        4.1551734786
 Cu         1.3165439532        8.0979481877        4.1886893146
 Cu         5.1895883248        5.9152626296        4.1628843906
 Cu        10.1718028365        5.9045703347        4.1446512928
 Cu         2.5480391421       10.3244350814        4.1362586479
 Cu         7.6624438165       10.4158185582        4.1300955420
 Cu         3.7878019446        8.1635069656        4.1340399499
 Cu         7.5447519851        1.5116209433        4.1673334928
 Cu         6.4156986224        8.1856381950        4.1262668990
 Cu         0.0272279625       10.3680324318        4.1252619164
 Cu         6.4593073234        3.7461767674        4.0881329818
 Cu         1.2474369005       12.6180247418        4.0877242618
 Cu        12.7411117558       10.3368971987        4.1293353489
 Cu        11.4450421605        3.7256232152        4.0933108289
 Cu        14.0817460023       12.5216810145        4.0592465950
 Cu         8.8563664151        3.7635856793        4.1736667087
 Cu        -0.1100681593        1.5196620855        4.1113814617
 Cu        14.0964577710        8.1717425633        4.0912338215
 Cu        11.5027809835        8.1279854669        4.1545949201
 Cu         7.6747239268        5.9743851342        4.1837129727
 Cu         2.4699544831        0.1657913609        6.2388575654
 Cu         5.0255899320        0.1739096432        6.2949940929
 Cu        12.6673894021        0.0847571883        6.1550120893
 Cu         1.2287200790        2.2346887611        6.2523267903
 Cu         5.0964214194        4.5122948433        6.3079708585
 Cu         3.7973715676        2.3313755205        6.1565820349
 Cu         8.9093123854        6.8262983816        6.2500375658
 Cu        13.9178422906       11.2125433275        6.2227256937
 Cu        10.1731644707       -0.0175280283        6.1209130395
 Cu        11.4401070239       11.0630117554        6.2511170751
 Cu        13.9618933638        2.2728985781        6.2150510932
 Cu         6.3434445023        2.3469530644        6.2932263338
 Cu         1.2672763247       11.2203646075        6.1633012860
 Cu         3.8939947299       11.1595747791        6.2195968418
 Cu         6.3947067108        6.6774729299        6.2343129689
 Cu         3.8684700075        6.6391784838        6.2606870629
 Cu         1.2335895663        6.6916972694        6.2725383398
 Cu        -0.0624670937        8.9447993872        6.2673106522
 Cu         7.6047281032        8.9489968393        6.1204703308
 Cu         8.9288490365        2.2740960881        6.1368216755
 Cu        10.2362804525        4.4849561524        6.3139708016
 Cu         2.5218080201        4.4964330151        6.2471916359
 Cu        10.1678194568        8.8646874617        6.2016231128
 Cu        11.4412190423        6.6647112171        6.2246996141
 Cu        -0.0945382409        4.4756684341        6.3700356371
 Cu        14.1102978665        6.7747097809        6.1464127143
 Cu         5.0726451675        8.8113172053        6.1630039313
 Cu         8.9166858472       11.0317923875        6.2224738954
 Cu         7.5890688527        0.0138740462        6.2114840812
 Cu         6.3649264755       11.0959285197        6.3275242400
 Cu        11.4345299528        2.3666422284        6.2879717419
 Cu        12.7456740096        4.5195658644        6.1643785282
 Cu         7.6855087490        4.5029698403        6.2086211021
 Cu         2.5570033275        8.9083809807        6.1879489437
 Cu        12.7749646926        8.8991940821        6.3317798181
 Cu        -0.0894523098        0.0244241396        6.2633590428
  O        14.5686786468       -2.1771081997        9.4194858025
  O        10.1820004072        7.6739447189        9.3291678184
  O         6.0306011231       -0.6065001755        9.6559413809
  O        -2.9188911397        2.3164809677        9.2813640768
  O         4.8839815659       10.3623302640       10.1181158828
  O         0.9025972818        6.8265093576       10.0976746484
  O        13.7261109856        8.6603095853       10.3117856949
  O        12.6780186700        6.5477963697        9.3106757960
  O         6.3133594519        8.3726149832        9.3969011870
  O        12.2628673333       -0.6642837084       13.6119719096
  O        15.6762763680        4.1876444738        9.5360384172
  O        -5.4491366519        1.2083405806        9.3908790229
  O         2.0939238245       10.4263091650        9.1509172001
  O         4.5676251581        0.6157865475       13.4993725066
  O        12.8390436344        4.4102013868       11.2624352005
  O         9.1586488147        0.7154970364       12.1012124403
  O         4.7214630730        8.5346212692       12.5004074045
  O         9.2921485030        9.3517874127       11.4748734282
  O         0.7526392129        9.5187350534       12.8363539708
  O         3.1871573039       -0.1631352321        9.3997918939
  O         2.1172625150        2.2244188019        9.2716088369
  O        12.0626336972        8.4785747827       12.5251123364
  O        12.1803686605       12.0898389965       10.9970603139
  O         3.9501449992        3.9558798456       12.2953412465
  O         6.8410780624        2.1363590823       12.5113389420
  O         2.8320211669        6.3939048071       11.7696224127
  O         5.9540191046       11.8749848718       12.5981128509
  O        14.7738083613        7.1061267457       13.4437937922
  O        10.6981031438       10.6427754212        9.2181422962
  O         1.1043569232        1.2761778166       13.7665636956
  O        -1.3509436689        1.2695672845       12.9391620748
  O        11.8243713081        3.3151761620       14.0105749797
  O         9.4963730750        1.9464346122       14.6407707380
  O         0.5663630540        3.9192373999       12.1188189974
  O        -1.5060104604       10.2552892272       14.2921612722
  O         1.2345132789       12.7584440088       11.5971276349
  O         6.8821360960        2.9730866638       15.9207863834
  O        11.3422505081        6.2203764197       13.8572893941
  O         7.3754383726        8.2632258931       13.1526376044
  O         8.8264342560        6.2653535948       14.1669398456
  O        13.7054291087        3.2059693407       15.9544121672
  O         2.4640000712        6.3235300528       14.4744233935
  O        10.5480960162       12.9150995953       16.0766714152
  O         6.9613234266        4.7943833902       12.9643399761
  O         0.4461145575        9.5628137019       20.5590120588
  O         0.1604178549        1.3067297259       16.0325135549
  O         3.9271763640       -0.2418106102       16.0168245942
  O         0.2413993553        4.5337078829       14.6930209446
  O         4.4934472618        3.0787871737       14.7118794271
  O         6.2737377360       10.2394426319       15.2792989525
  O        11.5929057139        6.7003160945       16.5759679236
  O         0.8805679879        7.9422111169       16.0676823343
  O         5.1546367077        6.3059419868       14.7727010155
  O        -1.0346602443       12.1761834036       17.3372079107
  O        12.2853146413       13.4692763238       18.0823100203
  O         0.4728921058       12.1300139584       19.7010771093
  O         1.3406295824        2.7120954657       17.9270384877
  O         5.5164981212        5.9148648418       17.7231259023
  O        12.4634639959        2.9162009932       18.2244014603
  O         3.1759799613       10.4176736688       14.0010136543
  O         8.4529936654       11.0718989071       16.7925786088
  O        11.4280372795       12.2057018255       20.2806893487
  O        10.2331345249        4.5005017199       18.2965674407
  O         8.0718165331        5.3759568250       16.7894075230
  O         0.2548351155       14.6693068039       20.5991864516
  O         5.0548352812        1.6293588409       17.4806638058
  O         9.6716726139        8.6539920838       17.7552881265
  O         2.6925990512        6.1000731267       19.2689499202
  O         5.3551548542        6.9132931862       20.1270778012
  O        14.6218550102        4.2546659575       18.9032017662
  O        -1.3505137192        7.0241887865       17.9297202249
  O         3.1457210347       11.7654253967       19.1539028196
  O         3.5801920113        3.7835075090       17.2350986260
  O        11.1010771685        9.4650666537       20.0073691847
  O        -1.7622303842        1.7926558744       23.4838622167
  O         5.4609066763        7.1599247293       22.7198756897
  O         8.6551549222        6.4801562679       23.0613978027
  O         1.4098700644        6.1401486199       21.9111606994
  O         9.5336072045        4.5839368764       20.9686549449
  O         6.1115960017        9.4411489711       19.3298626677
  O        -1.7904498706        8.4084864957       20.2001839049
  O         2.2262810885        8.5931178206       18.3005145421
  O        -1.6776332783        6.2645024437       22.1358048108
  O         5.6840316184       17.0525615686       23.2726587580
  O        12.2888371403       12.7309235139       23.1170089902
  O         3.8758043761       10.2629193903       21.0126603439
  O        11.9124130086        4.3044613458       22.8990646404
  O         2.9370245529        8.1530293781       23.0391570910
  O         7.8895922299       12.0868353924       19.4159408490
  O         1.1278669006        2.0991588338       23.8705154605
  O        17.8965607344        4.2078712961       23.4200327557
  O         1.2475848347       10.9311544347       22.6925851551
  O        13.0298080491        8.3495191744       23.7391605727
  O         9.8929906795       11.3480661559       23.3302324901
  O         8.6797610496        2.8418351967       22.8882046309
  O         5.4203356041       13.3573402408       19.7056662279
  O         3.6246773567       10.1996331726       16.6202624909
  O         4.5561689072       12.3861436716       22.4331369666
  O         7.7364268329        0.1148396539       23.0634363848
  O        10.5179432476        8.5491313149       22.5835574609
  O         7.7090716627       10.0355312050       21.3309700888
  O         2.0577121971       13.5683097689       22.3405793357
  O        -1.3169652495       10.7285541693       23.8920966263
  H         6.3279205586       -0.5111896831        8.6879531471
  H         5.4408133884        9.5971784994        9.6939608844
  H         0.1253493692        7.2819410896       10.3375842102
  H        14.4867667010       -2.5642976744        8.4536063886
  H        12.8643628934        6.3186219345        8.3937436537
  H         4.5848078500        2.8468923213        9.1844076988
  H         0.2171839109       10.9911599143        9.6624690705
  H         6.8759362011        2.2400301902        9.1237987524
  H         3.9780673082        5.3204209637        9.3810073464
  H         8.7467390024        4.1460006760        9.3554364053
  H        11.1273365841        7.3856827464        9.2462695716
  H         9.9146024635        7.7810006242        8.4201835395
  H         4.5287462827        7.5772572865        9.5370509119
  H         8.0225768514        6.4920837731        9.4686921752
  H        -2.9762147386        2.7877420359        8.3283975685
  H         5.5225433417       11.7994442246        9.7462500535
  H         0.6933255810        5.9100604789        9.7857758501
  H        -1.3117971368        9.5921998567       10.0598318247
  H        14.9000701384        4.2658565451        8.9957244824
  H        -4.4874658355        1.4681137365        9.2649715637
  H        13.2914680924        7.3167645364        9.4415157508
  H         3.9584528612       10.2542982570        9.9393421446
  H         9.6956463477        0.3529360208        8.9385871243
  H         5.0175530415       -0.1615123931       13.0798176080
  H        -2.8576974986        3.0659706463        9.9602453618
  H         2.3443159000       11.3247385698        8.9357277255
  H        11.8895500297       -0.8528360311       12.7117585165
  H        12.5115004448        5.1587835214       10.7402301854
  H        13.1473186925        8.6216070303       11.0689186341
  H        11.6095522989       -0.7228204621       14.2851634950
  H         8.2205291881        1.0852510030       12.2570821735
  H         8.6385706011        8.9005279838       12.1601146115
  H         9.4479900297        1.1172296075       11.2570839942
  H         2.5296596502        2.3370988148        8.4460009862
  H        11.6383733751        7.6531509019       12.8847291151
  H        11.2825791255        8.9873319226       12.2542521513
  H         3.9616876207        0.9372228943       12.8090198455
  H         0.5039591738        8.5488971286       12.7084406806
  H         1.7831001381        9.9326883568        8.3352336336
  H         4.7960546854        3.6271008973       11.8464474816
  H        15.3074455660        4.1702276025       10.4735259243
  H        13.0101093955       -1.7446793842       11.1632063764
  H         4.2127018833        7.6550676036       12.5076870886
  H         0.0475580834       -3.5076894054       13.4717749006
  H         4.6161920679        8.9490027484       11.6369812407
  H         9.2937044834        8.7350189821       10.6970078825
  H         4.1785285968       -0.0397309481        9.2865164148
  H         2.7044661545        0.7509152321        9.2553388761
  H         5.4147041779       -1.8927868772       11.9606233849
  H        12.3345556145        4.2769266744       12.1171214629
  H         2.0242119300        6.5013159189       11.1693925477
  H         7.0531543366        2.9871516198       12.8699362644
  H         3.1310702077        5.4430433847       11.7777782210
  H        -1.8454568248        0.5108652389       13.4238560547
  H        11.6241560800       11.5715665484       10.3484670378
  H        10.8188384667       10.7502340678        8.2484054350
  H         1.5059167299        0.6054774959       13.1110738789
  H         0.1471528596        1.5088043893       13.4063616532
  H         1.6125383009        3.0660426198        9.3732477313
  H         9.2381541022        1.4998263217       13.8033755877
  H         4.1144026197        3.6383228180       13.2445427793
  H        14.1114219357        6.7504797118       12.8656538643
  H         6.0562789649        1.7224400835       12.9399677533
  H        -2.0266524165        1.9346362932       12.8904794368
  H         5.9925464106       11.4023076356       13.4821210345
  H        10.3417513745        6.3213715120       13.8552115249
  H        13.4537406769       11.1578420118       14.3137041921
  H         7.0529187927        8.8828017315       13.8977595177
  H        -2.1093512239        9.6753523734       13.7830474405
  H        -0.2116738295        6.3023445041       13.8042221271
  H         1.3714926847        3.3722914573       12.1716938261
  H        10.9057712442        2.9602752528       14.2896318183
  H        10.6181603514        9.6261162055        9.2092513803
  H         1.9842496974       13.0032105672       10.9482493169
  H        11.6963937179        4.3505461628       14.2192681214
  H         2.3997213796        6.4927874596       13.4790360491
  H         7.7314348570        5.2971564520       13.4162988726
  H        14.4203098904        2.5642003426       15.7039058112
  H         7.7322528980        2.5104654657       15.5634747615
  H         9.8603967815        1.2483244631       15.2740816444
  H         8.2802646389        7.0290170590       13.8603995062
  H        13.0864276107        3.0078566840       15.2513328350
  H         8.6287647160        6.2020359953       15.1754428597
  H         6.4750409589        7.8913473179       12.7971287998
  H         0.3642936237        4.1392219102       13.0593896836
  H         1.3411753620       11.7738995800       11.8274689205
  H         0.6980786785        1.1278236858       15.1699463528
  H         6.1499234011        4.8924753589       13.5074907055
  H         6.5377347120        2.4746308626       16.7206597742
  H        11.3542861393        6.2410728595       14.8603080926
  H         3.8867321282       12.8154895223       15.0554960184
  H        -0.4075082707        9.0669281830       20.5673247747
  H         1.9117913103        7.0908314656       14.9429461094
  H         9.7714072580       12.4238186683       16.4172711486
  H         5.5791275775        9.9198464175       15.9317186614
  H        -1.3237742483       11.3358234964       16.8695255274
  H        11.1537056539       13.0652787112       16.8926316018
  H        14.8146147199        4.2541301839       15.2750430311
  H         5.3670872095        3.0857243545       15.1373967017
  H        11.2802128811        5.9441393902       17.1010393794
  H         0.6132487482        9.9108330774       21.4726066784
  H        -0.2048944719        0.4472706884       16.3791386405
  H         4.1764180735        6.1778165154       14.7461330968
  H         0.8946461052        4.9507140344       15.3058526359
  H         3.8170445352       12.1038655617       16.4134092438
  H         5.1913360862        5.1151442863       17.3362278820
  H        12.9045366505        2.9803650956       17.3598359627
  H         0.5311671519        8.7084399382       15.6331034028
  H         4.2709918647        2.1075799235       14.7003432902
  H         6.8785968829       10.8177771914       15.8741191462
  H         1.0578102656        2.1671704901       17.1454910617
  H        13.0699342439       13.1027581975       17.6316048716
  H         8.9849744614       10.2733393880       16.9555086537
  H         2.1458464600        3.1903639160       17.6372665109
  H         1.3816808849        8.4164279505       16.8701528439
  H        10.9437345290        7.4404798404       16.8273357679
  H        12.2537530136        1.1914286410       18.0848611556
  H        -0.4161339192       11.9044335542       18.0841570966
  H         0.4346236757       11.1348978315       19.8925848174
  H         5.3980932322        6.6982043893       15.6565449810
  H         2.3423085943       10.0450294766       13.6831445759
  H         6.4758910921        5.9525497788       17.5752253535
  H         0.7609323735       15.2429182705       19.9354719813
  H        11.8751664977       12.6603396611       19.4781259074
  H        11.6988594755       12.7240582003       21.0832657427
  H         4.5921365387        0.9832175506       16.8168401084
  H        11.0456533613        3.8896719321       18.2737147818
  H         7.5021039697        4.6697642522       16.4178597344
  H         8.2540216049       11.3157088065       17.7992249969
  H         1.4310903917       12.0816816327       19.7295199228
  H        13.2206937711        3.2775638275       18.7989515890
  H         8.7303378712        4.8506587839       17.3322594775
  H         5.4043456112        0.9222657902       18.1682884092
  H         3.8463834465        9.8007778995       13.6688997038
  H         5.5317850666        6.4325842123       19.3151794446
  H         8.7199668664        8.3705045106       17.8548358221
  H         3.6825259706        3.6627448676       16.2098435017
  H         0.2428714261       13.7773938089       20.1135494875
  H         5.6284025513        7.8175246320       19.8316159282
  H        10.0511368858        4.6224424101       19.2193609856
  H        10.9983526946       10.4476963007       20.0588006923
  H        -2.1832770601        6.8644126133       17.3196989534
  H         3.4887148896        6.5091263805       19.6528524624
  H         0.0664901616        3.8821514461       18.4559290674
  H        10.1549787326        8.6473283211       18.6392031792
  H         5.5374080955        6.9330742084       21.7455972041
  H        -1.6782851346        2.0018075662       22.5810310290
  H         3.0574788103        5.3269366014       18.7891605385
  H         1.8032805802        5.9167416239       20.9753645582
  H         3.4098237923       11.0482044677       19.7275776273
  H        -2.3733774607        2.5284000797       23.7517024612
  H        -0.5742325798        7.3467032781       17.3200362434
  H        14.7200441618        5.1886179188       18.6110961588
  H         8.8670495718        5.8220106663       22.3157799539
  H         3.1822864691       11.3608869320       18.2700771734
  H         4.1983660014        3.0851889329       17.5946902885
  H         6.3365156215        7.1140315992       23.0547291134
  H        10.8990655252        9.1233848515       20.9168584473
  H         2.3461779849        7.6506693938       18.5365114650
  H        -2.7005481895        8.7996913214       19.9953000166
  H         5.3062141496        9.7427436470       19.8089490137
  H         1.7442755544        8.9342506585       19.0929668116
  H         9.4589129455        3.8064319432       21.5879986242
  H         5.7795114495        4.7103926173       23.5406144700
  H        -2.3700221374       13.4217764237       23.2205232153
  H        13.7332789575        8.0322431322       19.3363658330
  H        10.4769189356        4.7948876641       21.2822587482
  H         8.4773415591       12.8610845042       19.6006480177
  H         1.8982549743        7.0210623274       22.1747396059
  H        11.5866724246        4.5683023150       23.7536536997
  H         8.5191578226        5.9157948131       23.8499408420
  H         3.8431847821        7.9043835194       22.9817777685
  H         6.8815833146        9.7489791783       19.9464858793
  H        -0.7008225615        6.1338685883       22.1844748003
  H         0.1573962544        2.0711429004       23.8729422329
  H         5.6617598158        3.3240871427       24.1555993064
  H        -1.8145100689        6.8908155694       21.3412147804
  H         6.9653147981       12.4448807802       19.6331168293
  H        12.7834542505       11.8766422821       23.3579880645
  H         4.1545218227       10.9888010382       21.6542260121
  H        12.6930800181        5.0144514252       22.7004353023
  H         3.2250906373        9.7271920999       21.5540413974
  H        13.4159088683        7.5272381070       23.3558198773
  H        17.4415183626        4.9843844641       23.0084179929
  H         3.2927880706       10.0298158155       15.6871897175
  H         2.6844807290        8.0079823519       24.0239422862
  H         4.6104180471       12.9067770637       19.3065935118
  H        10.6750435304       11.8834167895       23.5194324517
  H        18.8413727290        4.0892293795       23.1735122179
  H         8.7634691313        3.0116938297       23.8623558997
  H         1.6622265018       10.7277043741       23.5075074648
  H         1.6007894051        2.9193461614       23.6803842388
  H         3.6058091164       12.6942543940       22.4227568809
  H        10.2909975575        9.4507959879       22.8946555315
  H        12.1885768758        8.5309725841       23.2444334657
  H         1.1343426544       11.9185147990       22.6426300627
  H         7.7418112480       -0.2734916856       24.0295576077
  H         7.6521273763       10.9948527018       21.5086752326
  H         7.3072646678        9.5654423739       22.1388681981
  H         9.8763340837        7.8201976826       22.8243410857
  H         1.5675088735       14.1948137748       23.0083871683
  H         9.2650515799       -1.2026542371       23.0578721967
  H         1.6299635711       13.7450605831       21.4419455102
  H        13.7717318973        9.7940112897       23.7176593764
  H         7.7272706330        2.6839080811       22.6849514134
  H        -0.3887438419       10.8870899063       23.5205357032
  H         5.2895098157       13.4218440036       20.6648762072
  H         3.1404698018        9.5674663792       17.2855235018
  H         4.6976112366       12.5488668412       23.3489339144
  H         8.3845073316        0.8137356716       23.1084818892
  C         6.6450972923        3.3024197469        9.2177441291
  C         5.3096043140        3.6139136471        9.2119620209
  C         4.9933543393        4.9618017612        9.2542464255
  C         7.6511816128        4.2886662077        9.2782239495
  C         5.9603657922        5.9712661834        9.2908330733
  C         7.3134053506        5.6217308367        9.2655729865
  C         5.5485863511        7.3748966339        9.4119286432
  K        -0.8400423669        0.6339126149       10.0855683177
  K         8.4871134614       11.8024860434       10.7684176475
