      466
3999
 Cu         0.0000000000        0.0000000000        0.0000000000
 Cu         0.0000000000        4.4270557290        0.0000000000
 Cu         0.0000000000        8.8542442710        0.0000000000
 Cu         1.2779405470        2.2135942710        0.0000000000
 Cu         1.2779405470        6.6406500000        0.0000000000
 Cu         1.2779405470       11.0677057290        0.0000000000
 Cu         2.5560344530        0.0000000000        0.0000000000
 Cu         2.5560344530        4.4270557290        0.0000000000
 Cu         2.5560344530        8.8542442710        0.0000000000
 Cu         3.8339750000        2.2135942710        0.0000000000
 Cu         3.8339750000        6.6406500000        0.0000000000
 Cu         3.8339750000       11.0677057290        0.0000000000
 Cu         5.1119155470        0.0000000000        0.0000000000
 Cu         5.1119155470        4.4270557290        0.0000000000
 Cu         5.1119155470        8.8542442710        0.0000000000
 Cu         6.3900094530        2.2135942710        0.0000000000
 Cu         6.3900094530        6.6406500000        0.0000000000
 Cu         6.3900094530       11.0677057290        0.0000000000
 Cu         7.6679500000        0.0000000000        0.0000000000
 Cu         7.6679500000        4.4270557290        0.0000000000
 Cu         7.6679500000        8.8542442710        0.0000000000
 Cu         8.9458905470        2.2135942710        0.0000000000
 Cu         8.9458905470        6.6406500000        0.0000000000
 Cu         8.9458905470       11.0677057290        0.0000000000
 Cu        10.2239844530        0.0000000000        0.0000000000
 Cu        10.2239844530        4.4270557290        0.0000000000
 Cu        10.2239844530        8.8542442710        0.0000000000
 Cu        11.5019250000        2.2135942710        0.0000000000
 Cu        11.5019250000        6.6406500000        0.0000000000
 Cu        11.5019250000       11.0677057290        0.0000000000
 Cu        12.7798655470        0.0000000000        0.0000000000
 Cu        12.7798655470        4.4270557290        0.0000000000
 Cu        12.7798655470        8.8542442710        0.0000000000
 Cu        14.0579594530        2.2135942710        0.0000000000
 Cu        14.0579594530        6.6406500000        0.0000000000
 Cu        14.0579594530       11.0677057290        0.0000000000
 Cu         0.0000000000        2.9513704860        2.0869457760
 Cu         0.0000000000        7.3785590280        2.0869457760
 Cu         0.0000000000       11.8056147570        2.0869457760
 Cu         1.2779405470        0.7379090280        2.0869457760
 Cu         1.2779405470        5.1649647570        2.0869457760
 Cu         1.2779405470        9.5920204860        2.0869457760
 Cu         2.5560344530        2.9513704860        2.0869457760
 Cu         2.5560344530        7.3785590280        2.0869457760
 Cu         2.5560344530       11.8056147570        2.0869457760
 Cu         3.8339750000        0.7379090280        2.0869457760
 Cu         3.8339750000        5.1649647570        2.0869457760
 Cu         3.8339750000        9.5920204860        2.0869457760
 Cu         5.1119155470        2.9513704860        2.0869457760
 Cu         5.1119155470        7.3785590280        2.0869457760
 Cu         5.1119155470       11.8056147570        2.0869457760
 Cu         6.3900094530        0.7379090280        2.0869457760
 Cu         6.3900094530        5.1649647570        2.0869457760
 Cu         6.3900094530        9.5920204860        2.0869457760
 Cu         7.6679500000        2.9513704860        2.0869457760
 Cu         7.6679500000        7.3785590280        2.0869457760
 Cu         7.6679500000       11.8056147570        2.0869457760
 Cu         8.9458905470        0.7379090280        2.0869457760
 Cu         8.9458905470        5.1649647570        2.0869457760
 Cu         8.9458905470        9.5920204860        2.0869457760
 Cu        10.2239844530        2.9513704860        2.0869457760
 Cu        10.2239844530        7.3785590280        2.0869457760
 Cu        10.2239844530       11.8056147570        2.0869457760
 Cu        11.5019250000        0.7379090280        2.0869457760
 Cu        11.5019250000        5.1649647570        2.0869457760
 Cu        11.5019250000        9.5920204860        2.0869457760
 Cu        12.7798655470        2.9513704860        2.0869457760
 Cu        12.7798655470        7.3785590280        2.0869457760
 Cu        12.7798655470       11.8056147570        2.0869457760
 Cu        14.0579594530        0.7379090280        2.0869457760
 Cu        14.0579594530        5.1649647570        2.0869457760
 Cu        14.0579594530        9.5920204860        2.0869457760
 Cu         3.7063649874       12.5681179386        4.0910847947
 Cu        11.3811852184       12.4996241094        4.1543771491
 Cu         2.4758509720        1.4613515379        4.1878029960
 Cu         5.0016472856        1.5074579170        4.0582262215
 Cu         2.5111457200        5.8873689686        4.1573110837
 Cu         3.7283889096        3.6205814426        4.1939108602
 Cu         6.3551684944       12.5938616981        4.1086218191
 Cu         1.2147305076        3.7702648228        4.1669152033
 Cu        12.7478459790        1.3877723224        4.1784015825
 Cu        14.0385474068        3.8166504419        4.1892463015
 Cu        10.2622461195        1.4608941209        4.0995463084
 Cu         8.7501694227        8.1872837172        4.0364500160
 Cu        12.7585071926        5.8984751996        4.1995833046
 Cu        -0.0419909112        5.9255301606        4.0986569699
 Cu        10.1882958094       10.1490947177        4.0537723468
 Cu         8.8854100998       12.5639311963        4.0442096726
 Cu         5.0379279980       10.4587307664        4.1973158336
 Cu         1.2685452078        8.1175426947        4.1174162997
 Cu         5.0730637096        5.8826096545        4.0724600802
 Cu        10.1968738070        5.8725222325        4.1167060838
 Cu         2.5464876616       10.3923088910        4.1642579175
 Cu         7.6104294727       10.3540661072        4.1918563035
 Cu         3.7971697959        8.1759866178        4.1095621866
 Cu         7.6093933232        1.4033405193        4.2184926241
 Cu         6.3738393021        8.1562261084        4.1072221342
 Cu         0.0061963574       10.3492887280        4.1851264195
 Cu         6.3835854656        3.7439342845        4.2193473905
 Cu         1.1555060678       12.5542985737        4.1719657967
 Cu        12.8329390051       10.3145475492        4.1588309476
 Cu        11.5286155330        3.6949933978        4.0372210025
 Cu        14.0223103858       12.5301999320        4.1589526845
 Cu         8.9268121731        3.7024812388        4.1017339528
 Cu        -0.0216028590        1.5756082905        4.0955115498
 Cu        14.1090169228        8.1227130260        4.1019990634
 Cu        11.5095833710        8.1237221563        4.1061970011
 Cu         7.6930640095        5.8823317331        4.1500086562
 Cu         2.4375322437       -0.0235940829        6.2471685468
 Cu         5.0461639147        0.0050736158        6.2150213959
 Cu        12.7181746228       -0.0869802808        6.3491098126
 Cu         1.1890353728        2.3077837054        6.1675095235
 Cu         5.0674884752        4.4535815735        6.1774864068
 Cu         3.7734523385        2.1226138525        6.2723476965
 Cu         8.9467123323        6.7334794662        6.0151850908
 Cu        14.1327718965       11.0380122714        6.2640943322
 Cu        10.2276931251       -0.1033493097        6.2225121037
 Cu        11.4335420739       10.9740208786        6.1458100274
 Cu        13.9932295042        2.2394436612        6.1243750825
 Cu         6.2820484925        2.1338447860        6.1425738130
 Cu         1.2548319217       11.1247113026        6.2445798569
 Cu         3.7708412025       11.1576353675        6.3035666744
 Cu         6.3182307572        6.6331906990        6.0703244923
 Cu         3.8411910357        6.7280785002        6.1477613090
 Cu         1.3114288114        6.6054690845        6.2310921032
 Cu         0.0759848832        8.7861679274        6.1226618768
 Cu         7.6644943693        8.9231274791        6.3777583517
 Cu         8.9472252810        2.0874715728        6.1820439303
 Cu        10.1727589010        4.4564548845        6.0984854144
 Cu         2.5538315139        4.4550672706        6.3122597341
 Cu        10.2345050052        8.8142259361        6.2033926856
 Cu        11.5197858330        6.6615225514        6.2051717451
 Cu         0.0284155320        4.4735066445        6.3083413201
 Cu        14.0736029778        6.5502337827        6.3084381995
 Cu         5.1920214889        8.9132903922        6.1937818397
 Cu         8.9694245477       11.0792441051        6.2256026290
 Cu         7.5707354139       -0.0345246706        6.3236626969
 Cu         6.3750744696       11.1075775866        6.2916674671
 Cu        11.3851743454        2.2108128563        6.1482808117
 Cu        12.7229828157        4.3943778564        6.3145391712
 Cu         7.7439383350        4.3513046163        6.2296017909
 Cu         2.6305458437        8.9015752602        6.1631403541
 Cu        12.8562653748        8.7653648084        6.2009166722
 Cu        -0.1182656304        0.0626340703        6.1511072906
  O        14.6429406314       -3.4587701574        9.0844667505
  O         9.0485963077        7.5790611818       10.1289284983
  O         5.6980849030       -1.4554979626        9.4266762230
  O        -3.3317001299        1.3003153647        9.3530744519
  O         5.3505776176        9.3546795244        9.8656077281
  O         1.5614585259        5.8048571296        9.7097348549
  O        13.2572438258        7.3165097352        9.9169624058
  O        11.1191264282        6.0636435202        9.5550034489
  O         6.6179436021        7.0332449010        9.0486359051
  O        12.8065070553       -0.9309855812       13.8100844829
  O        14.8359691040        4.1338322314        9.5370126184
  O        -5.6830346903       -0.2245217000        9.3674876128
  O         2.7341606396        9.7665119350        9.4303920102
  O         4.7586746236        0.3469502757       13.8288033555
  O        12.2299726368        3.6940526668       10.7354202674
  O         9.0940817443        0.6982567952       12.1916099182
  O         5.2007944177        9.0301466944       12.7283300164
  O         8.9949509180        8.9310127477       12.4903823937
  O         0.5855298540        9.4777657227       12.9405029127
  O         2.9362958063       -0.7767377013        9.8194073348
  O         1.6448675098        1.7601367767        9.4588319790
  O        11.8329570645        8.8367072100       14.7333198982
  O        12.4256948722       10.8264769713       11.3044539916
  O         4.6618953810        4.3832673051       12.3455018258
  O         6.5550957353        1.8062465998       12.1769993557
  O         3.4018752088        6.8394535573       12.6806895812
  O         6.2825641711       11.5072556265       13.1505329671
  O        15.4916827047        7.1342919841       11.7646199414
  O        10.4051066313        9.8563168314        9.6407571926
  O         2.3062325230        0.7688754172       13.3181237095
  O        -1.6185452291        1.4511813860       11.8569881825
  O        11.7599887884        3.4229960071       13.4107657935
  O         9.8896490909        1.8387615262       14.4062278055
  O         1.8999157381        3.0414230416       11.6944007334
  O        -1.0149078555       10.0935137811       15.0823883887
  O         0.8368896213       12.1202285532       11.6252699399
  O         7.7043787998        2.6486472902       15.9137037876
  O        11.1719826489        6.1599841871       14.3871095099
  O         6.8591877894        8.3109872339       14.8174111211
  O         8.6319655071        6.4154099262       14.2473447993
  O        13.9716928148        2.8630649729       14.9668449220
  O         1.7758748122        6.4209773598       14.8978119695
  O        10.9912188198       12.9982357279       15.8268298982
  O         7.4273758218        4.4247698400       12.8636893757
  O         1.3670468126        9.5602634162       20.4436888510
  O         0.7503122036        1.3227640062       15.4278248694
  O         4.9119378727       -1.3583290926       15.9280383866
  O         0.2318766110        4.7733128495       13.2541096276
  O         4.2238695388        2.9287688167       14.8290978674
  O         7.4081388080       10.8973640906       15.6258635167
  O        11.8139923226        6.6901842716       17.1593960992
  O         0.8821607621        8.5239166611       16.8105201601
  O         4.3235568336        5.5579686844       16.1385115403
  O        -0.3517815694       12.6201923550       17.0723904091
  O        12.6701346263       13.6009020678       18.4073931267
  O         1.4599638650       11.8520756167       18.9962807023
  O         1.3858378484        2.4599521371       17.9297143523
  O         7.7282321016        3.2802544415       19.6829507290
  O        12.7666895196        2.8961830800       17.5347838724
  O         3.1027650175       10.0886237733       14.4988357498
  O         9.3728870796       11.6503768475       17.2736091266
  O        11.6442552161       12.4016815755       20.5263292990
  O        10.5367736295        4.5181632858       18.2438423472
  O         7.9788528016        5.1409238555       16.4724403529
  O         1.5589191742       14.2696680210       20.3753605905
  O         5.8213013562        2.0287825879       17.9375577291
  O        10.1844170431        8.8705350053       18.0583799726
  O         3.1491160123        6.1058551810       20.0980289231
  O         6.4643941478        5.9250222106       20.4346148035
  O        14.6182851764        3.7214237621       19.3139513150
  O        -1.0169310776        6.8674677536       18.1347276573
  O         4.3724358230       11.8743749769       19.1412665503
  O         3.7743661652        3.9704248262       18.4788617232
  O        11.7267148560        9.3876301327       20.5882915399
  O        -1.0101881498        2.1776448765       22.7617528361
  O         5.7313620177        7.0012767183       22.9202889551
  O         9.2674431161        6.7234210831       23.0648236439
  O         1.4051906400        6.5013439463       22.4808131190
  O        10.7996558252        3.9664936340       21.0405919004
  O         7.6463990413        7.7508065365       19.0203690323
  O        -1.1962194713        8.1747902751       20.8372453214
  O         3.1800488357        8.8493934385       18.6406054311
  O        -1.3504597549        6.8198968002       22.9983663708
  O         5.0282101044       17.6182435852       23.5720860404
  O        12.2376255838       12.9524271822       23.2885544000
  O         4.9864799618       10.4189962285       21.0814299550
  O        12.5412168716        4.4322707622       23.2714568270
  O         3.7611054887        8.6874774435       22.9681102030
  O         8.9768611156       11.9692321650       19.9183003237
  O         1.1983075890        1.7516205045       23.9365608582
  O        17.7153091171        4.3054168053       24.2006873893
  O         1.4495505194       10.6434273777       23.1009779734
  O        12.7814885076        8.8276972942       24.0264580520
  O         9.2920424586       11.5847221704       23.4144258138
  O         9.1219931862        3.0854804140       23.1708696107
  O         6.4922737973       13.5045014203       19.9572921936
  O         5.3323304280        8.1297171744       17.1199199323
  O         5.5036285678       12.5531677555       22.8282256752
  O         6.4509394859        2.0957369430       22.5322036260
  O        10.2011224081        9.2433968683       22.9599169582
  O         7.6409696187        9.7605847735       20.7976585734
  O         2.6604441501       13.1726270445       22.6414263543
  O        -1.1274677169       11.0597819182       24.0881721325
  H         5.8411944172       -1.1093686371        8.4528823464
  H         5.7598702054        8.5327758614        9.4654719743
  H         1.8079289508        6.2275571622        8.8775168135
  H        14.5156854914       -3.2825604436        8.1290543208
  H        11.1320252624        5.9461057299        8.5383649528
  H         4.2129084837        1.7684787388        8.7891448129
  H         0.2949882652        9.6270120237        9.1788576378
  H         6.4456429473        0.7964130829        8.7236259348
  H         3.8363172205        4.1739200484        8.7902567883
  H         8.4640614169        2.3159358450        8.7971569240
  H         9.6670665877        6.7876211389        9.9730192917
  H         8.1569405027        7.3522927651        9.6216540920
  H         4.6602228824        6.4837070074        8.7987190401
  H         8.1403386627        4.7977243318        8.8111253178
  H        -3.1978618303        1.6271689198        8.4245813520
  H         5.5701735692       10.8469398457        9.3576935033
  H         0.8972012892        5.0930223118        9.4686111982
  H        -1.7287275476        8.0769344377        9.4121957089
  H        14.2742233008        4.7666619637        8.9433976241
  H        -4.8309658767        0.2024152823        9.0742069427
  H        11.8532249132        6.6912885494        9.7130058092
  H         4.3690591181        9.4073907157        9.6223634116
  H         9.0676348145       -0.2997484062        8.5784478975
  H         5.1653837163       -0.5074790279       13.3699628580
  H        -3.2981370229        2.1676961418        9.9294144958
  H         2.7829685815       10.7686461391        9.4823660433
  H        12.5630978082       -1.4755203830       13.0287638005
  H        11.8520658542        4.5216350815       10.4211334859
  H        14.0453072714        7.0087885149       10.4545134275
  H        12.1167707690       -0.8881392709       14.4744247409
  H         8.3139925597        1.2174441793       12.1918773227
  H         8.9668046643        8.4696796217       13.4023674176
  H         9.3899145856        0.7248150908       11.2356704645
  H         1.0126519849        2.0898157258        8.8154555191
  H        11.7330899560        7.8448559890       14.5899122778
  H        11.5864654665        9.2190784000       13.8910309157
  H         3.8000026286        0.3539956087       13.5007862079
  H         0.5321333807        8.6419369452       12.4111300697
  H         2.5860465505        9.7233105049        8.4184451484
  H         5.6457559358        4.6130643280       12.4103706085
  H        14.2317182963        3.7350466782       10.1406216696
  H        12.9928851115       -3.2500162570       11.3519680271
  H         4.6748066882        8.1303509160       12.8078303371
  H        -0.0151333004       -3.7743272847       13.6969371722
  H         5.2092285385        9.1162688704       11.7291426096
  H         9.1455586084        8.1722182404       11.8216615300
  H         3.8711185749       -0.8138759577        9.7695545836
  H         2.7015600226        0.0934708218        9.4724075736
  H         5.9361014996       -2.6767417952       13.3416361995
  H        11.9968710040        3.4761253942       11.7110565766
  H         2.8208617160        6.7644282505       11.8744121711
  H         5.9884522622        2.2661294358       11.5001598640
  H         3.8243722336        5.9692530919       12.7024642892
  H        -2.0489790590        0.9058345546       12.5094972073
  H        11.6370409427       10.3417648833       10.8420397797
  H        10.4720239698       10.1317637158        8.6954023442
  H         1.6904149393        0.1845518813       12.8074301470
  H         2.2776995347        1.6511633546       12.8533117375
  H         1.4838348424        2.2819891643       10.3122914276
  H         9.6003560236        1.3942072016       13.4388426433
  H         4.4938681263        3.8253513346       13.1972711282
  H        16.0513623115        6.6249449755       11.1215282132
  H         5.8574128902        1.4436605057       12.7686303806
  H        -1.5667835121        2.2683141667       12.3048725693
  H         6.8673811021       11.6698435414       13.9804126352
  H        10.2284665371        6.4847910960       14.3798637052
  H        14.0957886968       10.9935942859       14.6908819892
  H         7.2680770187        9.1876782879       15.1432421365
  H        -1.9317278646        9.5832319149       15.0397532170
  H        -0.1551482163        6.2950549000       12.3230615029
  H         2.7657288025        3.5102521197       11.7067265858
  H        10.9657210837        2.9031583216       13.8285840604
  H         9.8519665412        8.9723165454        9.5332251557
  H         1.8277332314       12.1417603029       11.3402110278
  H        11.5551434495        4.3280709950       13.7522131719
  H         2.2272272073        6.9160090287       14.2198671018
  H         7.8269695718        5.0613982738       13.4623830571
  H        14.4629405630        1.9932776442       14.7581606234
  H         8.4347771035        2.2716332936       15.3868534285
  H        10.0582813253        0.9812195165       14.8792533399
  H         7.9608012138        7.1151687645       14.2066704574
  H        13.0981282249        2.9137094226       14.5152714389
  H         8.4279140463        6.0768407870       15.1592170225
  H         6.3058086981        8.5029922809       14.0256105147
  H         1.3303675644        3.8153742958       11.8696725270
  H         0.7877066457       11.2407188492       12.0871112376
  H         1.5329337344        1.0836843382       14.8433934371
  H         7.3154328319        3.5718514287       13.2772786218
  H         7.3476898927        2.1240433994       16.6189039311
  H        11.2594205788        6.0298286052       15.3831747630
  H         4.9242358018       12.7011186025       15.3240447735
  H         0.4578859413        9.2228222309       20.6449856969
  H         1.5844211760        7.0110767798       15.5906004127
  H        10.4164343292       12.4557231547       16.4770591086
  H         6.5856106887       11.1669064277       16.0807291592
  H        -0.6575509895       11.8135451197       16.6567316344
  H        11.7211258303       13.4236518975       16.3474748905
  H        14.8715472563        4.3189059395       13.8575760435
  H         4.4350624285        3.6644539673       15.4043719820
  H        11.3792160273        6.0119598997       17.7393662832
  H         1.8183802578        9.5610549452       21.3745891096
  H         0.4933226016        0.5475423931       15.9762228265
  H         3.5067208347        5.9639177636       15.8335172976
  H         0.7214695510        5.3830050600       13.9192759935
  H         4.2145565398       11.3788374655       15.4983254987
  H         7.3867966170        2.9454796520       18.8204446007
  H        13.2384208119        2.8710207784       16.6835287072
  H         0.8480385258        9.4063403414       16.3784285530
  H         4.6876360322        2.0725216015       14.8833681763
  H         8.1949646210       11.1131148863       16.2903535019
  H         1.0779833766        2.1382678630       16.9347272146
  H        13.4463857314       13.1830085679       18.0439045365
  H         9.7674885261       10.7354821287       17.4700409081
  H         2.3245832551        2.8071688723       17.7660549832
  H         1.8620201698        8.5113196741       17.2728626076
  H        11.3441620826        7.5593696609       17.4596008988
  H        12.7846024245        1.2714867061       18.1773917287
  H         0.3902926426       12.2892536340       17.7347037158
  H         1.3043892127       11.1946925558       19.7181257623
  H         4.8984430633        6.3163921787       16.4423644169
  H         2.3748896870        9.9006955389       13.9060365496
  H         8.6955643672        3.4713550269       19.6610186987
  H         1.9971805177       14.9253411170       19.8073908763
  H        12.0988018500       13.0315800501       19.9219977262
  H        11.8067584332       12.8951838729       21.4032752683
  H         5.2944095172        1.7043962788       17.1850275795
  H        11.0491237165        3.7154238761       17.9225193429
  H         7.8303089963        4.1816531995       16.3788376352
  H         9.1050515030       11.8007256982       18.2864169292
  H         2.4913634274       11.8915726496       19.0150311492
  H        13.4277350035        3.1613932638       18.2372382984
  H         8.7252266202        5.1942669584       17.0781656918
  H         6.0515624243        1.3206150924       18.5889823335
  H         3.8493922082        9.8677869354       13.9362900884
  H         6.7106683753        4.9823913213       20.3873347363
  H         9.3191623447        8.4341021451       18.3255526382
  H         3.8514969132        4.5000015643       17.6244899955
  H         1.4303088660       13.5456226096       19.8171919132
  H         7.1169405035        6.4525920131       19.9004635651
  H        10.6923361597        4.4289553972       19.2087905811
  H        11.8423755278       10.2879273450       20.4290873537
  H        -1.8193694783        6.7463686526       17.6098076068
  H         3.9925210103        6.3803665337       20.4941459767
  H         0.0990803544        3.3120917825       18.8772375420
  H        10.6716487221        8.9506679777       18.8854254691
  H         6.0161595747        6.7326051691       22.0168262539
  H        -0.8595887913        2.2675995217       21.8137140408
  H         3.4612883132        5.2688632599       19.6242770133
  H         1.7027641298        6.1511968604       21.5974131872
  H         4.4205326147       11.1275102771       19.7588476669
  H        -1.7963366571        2.7678900166       22.8759235951
  H        -0.3803182539        7.4690584392       17.6503077614
  H        14.6791707354        4.6906613349       19.1077248741
  H         9.8585101754        6.3039261606       22.4506110303
  H         4.5769574867       11.5594537986       18.2105262243
  H         4.5893982160        3.4286888532       18.4523513184
  H         6.3730996284        7.6507330736       23.3292176278
  H        11.1345238197        9.3037893879       21.3474935959
  H         3.2509514137        7.9049465213       19.0081447887
  H        -1.9565104438        8.7072237220       20.7210450984
  H         6.9285878441        7.8186414776       18.3784917099
  H         2.4029321217        9.1552452657       19.1788416615
  H        10.0925417568        3.6578251754       21.6341031782
  H         5.4271529470        5.2010748331       23.3831253815
  H        -2.5492487107       13.7265511006       23.3429795704
  H        14.1985489102        7.6738116116       19.9455167431
  H        11.5234287671        4.2631693370       21.6896297576
  H         9.8567724171       12.2237213183       20.3288787968
  H         2.0260109657        7.2414652065       22.7917567440
  H        12.4320503575        4.5457410640       24.2358293888
  H         9.4045236482        6.3408938826       23.9784109979
  H         4.4873178402        7.9646900573       23.0715758336
  H         7.5613150985        8.4963566987       19.6502404248
  H        -0.3434201547        6.6786205077       22.9862774093
  H         0.3264556376        1.7617384212       23.5105552393
  H         5.5452061055        3.6537882154       23.1012888917
  H        -1.3960350528        7.2850257950       22.1371625656
  H         8.2734453436       12.6235466687       19.8838613809
  H        12.8684255178       12.1994535615       23.3636354348
  H         5.1974327807       11.2776972827       21.4980089027
  H        13.0916996669        5.2244633911       23.0418415677
  H         4.5380184394        9.7823864096       21.7281064498
  H        13.2459665197        8.0396615578       23.6201387359
  H        17.3792007519        5.0311417661       23.6328859270
  H         5.6827795602        8.4301918177       16.1988794828
  H         3.6915926165        9.0482760270       23.9490403173
  H         5.6710760584       12.8811503371       19.9283216493
  H         9.8103338289       12.1092711517       24.0399255944
  H        18.7010976968        4.2664212332       23.9324848102
  H         9.5102743618        2.8054540179       24.0444595942
  H         1.9745756626       10.1342148244       23.7513192733
  H         1.4979246236        2.6934295338       24.0282545471
  H         4.5566902446       12.8747823708       22.8809383516
  H         9.5886952140        9.9843421303       23.2286708777
  H        11.7874953828        8.9452631585       23.6233470526
  H         1.9175865739       11.5263602914       22.8672902014
  H         5.9570451660        1.6188719359       23.2733680932
  H         6.6465685540       10.0019351728       20.9311974694
  H         8.2210847666       10.5359951347       20.5784753532
  H         9.7308537902        8.3229899275       23.2080333631
  H         2.2387380058       13.6893489972       23.3257683797
  H         8.3633188541       -1.3257925129       23.4495996803
  H         2.3711803327       13.6856579764       21.7595814460
  H        13.7262605911       10.1532705158       23.9678484992
  H         8.5853428551        3.7914873505       23.5909872706
  H        -0.2191153920       10.9321818378       23.7140211384
  H         6.4541945032       14.1491990076       20.7456867925
  H         4.4843216966        8.5921012294       17.3790565252
  H         5.6104644871       12.0202870263       23.6205435422
  H         7.3555407162        2.1896805328       22.8794566801
  C         6.3936822713        1.9020221744        8.6986222019
  C         5.0957686276        2.3685800878        8.7683254099
  C         4.8492291585        3.7490478970        8.7306046427
  C         7.4514041192        2.7901924228        8.7693593752
  C         5.9339186890        4.7075953728        8.7288957236
  C         7.2702134527        4.1560131047        8.7184044811
  C         5.7270510103        6.1110990661        8.8334632758
  K        -1.0120464538       -0.3801108842        9.8178559863
  K         8.2593621060       11.2338560331       11.3456913557
