      466
4999
 Cu         0.0000000000        0.0000000000        0.0000000000
 Cu         0.0000000000        4.4270557290        0.0000000000
 Cu         0.0000000000        8.8542442710        0.0000000000
 Cu         1.2779405470        2.2135942710        0.0000000000
 Cu         1.2779405470        6.6406500000        0.0000000000
 Cu         1.2779405470       11.0677057290        0.0000000000
 Cu         2.5560344530        0.0000000000        0.0000000000
 Cu         2.5560344530        4.4270557290        0.0000000000
 Cu         2.5560344530        8.8542442710        0.0000000000
 Cu         3.8339750000        2.2135942710        0.0000000000
 Cu         3.8339750000        6.6406500000        0.0000000000
 Cu         3.8339750000       11.0677057290        0.0000000000
 Cu         5.1119155470        0.0000000000        0.0000000000
 Cu         5.1119155470        4.4270557290        0.0000000000
 Cu         5.1119155470        8.8542442710        0.0000000000
 Cu         6.3900094530        2.2135942710        0.0000000000
 Cu         6.3900094530        6.6406500000        0.0000000000
 Cu         6.3900094530       11.0677057290        0.0000000000
 Cu         7.6679500000        0.0000000000        0.0000000000
 Cu         7.6679500000        4.4270557290        0.0000000000
 Cu         7.6679500000        8.8542442710        0.0000000000
 Cu         8.9458905470        2.2135942710        0.0000000000
 Cu         8.9458905470        6.6406500000        0.0000000000
 Cu         8.9458905470       11.0677057290        0.0000000000
 Cu        10.2239844530        0.0000000000        0.0000000000
 Cu        10.2239844530        4.4270557290        0.0000000000
 Cu        10.2239844530        8.8542442710        0.0000000000
 Cu        11.5019250000        2.2135942710        0.0000000000
 Cu        11.5019250000        6.6406500000        0.0000000000
 Cu        11.5019250000       11.0677057290        0.0000000000
 Cu        12.7798655470        0.0000000000        0.0000000000
 Cu        12.7798655470        4.4270557290        0.0000000000
 Cu        12.7798655470        8.8542442710        0.0000000000
 Cu        14.0579594530        2.2135942710        0.0000000000
 Cu        14.0579594530        6.6406500000        0.0000000000
 Cu        14.0579594530       11.0677057290        0.0000000000
 Cu         0.0000000000        2.9513704860        2.0869457760
 Cu         0.0000000000        7.3785590280        2.0869457760
 Cu         0.0000000000       11.8056147570        2.0869457760
 Cu         1.2779405470        0.7379090280        2.0869457760
 Cu         1.2779405470        5.1649647570        2.0869457760
 Cu         1.2779405470        9.5920204860        2.0869457760
 Cu         2.5560344530        2.9513704860        2.0869457760
 Cu         2.5560344530        7.3785590280        2.0869457760
 Cu         2.5560344530       11.8056147570        2.0869457760
 Cu         3.8339750000        0.7379090280        2.0869457760
 Cu         3.8339750000        5.1649647570        2.0869457760
 Cu         3.8339750000        9.5920204860        2.0869457760
 Cu         5.1119155470        2.9513704860        2.0869457760
 Cu         5.1119155470        7.3785590280        2.0869457760
 Cu         5.1119155470       11.8056147570        2.0869457760
 Cu         6.3900094530        0.7379090280        2.0869457760
 Cu         6.3900094530        5.1649647570        2.0869457760
 Cu         6.3900094530        9.5920204860        2.0869457760
 Cu         7.6679500000        2.9513704860        2.0869457760
 Cu         7.6679500000        7.3785590280        2.0869457760
 Cu         7.6679500000       11.8056147570        2.0869457760
 Cu         8.9458905470        0.7379090280        2.0869457760
 Cu         8.9458905470        5.1649647570        2.0869457760
 Cu         8.9458905470        9.5920204860        2.0869457760
 Cu        10.2239844530        2.9513704860        2.0869457760
 Cu        10.2239844530        7.3785590280        2.0869457760
 Cu        10.2239844530       11.8056147570        2.0869457760
 Cu        11.5019250000        0.7379090280        2.0869457760
 Cu        11.5019250000        5.1649647570        2.0869457760
 Cu        11.5019250000        9.5920204860        2.0869457760
 Cu        12.7798655470        2.9513704860        2.0869457760
 Cu        12.7798655470        7.3785590280        2.0869457760
 Cu        12.7798655470       11.8056147570        2.0869457760
 Cu        14.0579594530        0.7379090280        2.0869457760
 Cu        14.0579594530        5.1649647570        2.0869457760
 Cu        14.0579594530        9.5920204860        2.0869457760
 Cu         3.9098174528       12.6446364447        4.1264607737
 Cu        11.4906541273       12.5412742857        4.2004024913
 Cu         2.5567058167        1.5059119459        4.1621562597
 Cu         5.1746046379        1.5730774966        4.1187529773
 Cu         2.5746479134        6.0239119013        4.0840679794
 Cu         3.7902976911        3.7009410895        4.2012400384
 Cu         6.4123773598       12.6420110624        4.1899080541
 Cu         1.2276531935        3.7441195882        4.1409846390
 Cu        12.7614631443        1.4561176778        4.1767679063
 Cu        14.0025835539        3.6829410126        4.1760405990
 Cu        10.2506256718        1.5053957445        4.0946138674
 Cu         8.9294979761        8.1164382735        4.1840430212
 Cu        12.7818888866        5.9901025156        4.1014597445
 Cu         0.0303466303        5.8649591648        4.1726113123
 Cu        10.2291883632       10.2782966750        4.2314752304
 Cu         8.8738431120       12.5667445682        4.1493132172
 Cu         5.1337147438       10.3791073538        4.1459522407
 Cu         1.2969838430        8.1748578840        4.1499390268
 Cu         5.0963893858        5.8562139707        4.1878611967
 Cu        10.2546495501        5.8528763440        4.1640524736
 Cu         2.6158039279       10.3608015326        4.1561054014
 Cu         7.6314994973       10.3475984859        4.1446410902
 Cu         3.7681670367        8.1211395846        4.0938968826
 Cu         7.6388226509        1.5228375215        4.1734564525
 Cu         6.4212852434        8.1222610487        4.1271620642
 Cu        -0.0702820109       10.3351292195        4.1374841883
 Cu         6.3350708551        3.7114289337        4.1874573629
 Cu         1.2980677985       12.5764782123        4.1030342429
 Cu        12.6915277530       10.4310967357        4.1262090439
 Cu        11.4368049625        3.7508156530        4.1128577388
 Cu        14.0370458060       12.5722833407        4.0941501214
 Cu         8.8926131296        3.7645553045        4.0782249101
 Cu        -0.0234844221        1.5224878049        4.1465522954
 Cu        14.0665321221        8.2722664133        4.1889748365
 Cu        11.5328916837        8.1493454401        4.1460203095
 Cu         7.6670469200        5.9548539506        4.1081611528
 Cu         2.5906950331        0.0033180415        6.2070835626
 Cu         5.1382673630        0.0203769820        6.1774414947
 Cu        12.8321452066        0.0722314410        6.2139801982
 Cu         1.3339607450        2.3438114157        6.2000018538
 Cu         5.0957471276        4.3991681795        6.2647938650
 Cu         3.8547245984        2.1801051917        6.2318626809
 Cu         8.9798036622        6.6587557853        6.1248483389
 Cu        14.1201261793       11.1306983095        6.1883252175
 Cu        10.2118064443        0.1025373250        6.2584891891
 Cu        11.5708492967       11.1510717403        6.3260675858
 Cu        14.1345503360        2.2185667076        6.2937578480
 Cu         6.4054509260        2.1691598275        6.2158738495
 Cu         1.2892549427       11.0746839058        6.0616625442
 Cu         3.9779289609       11.2382838452        6.2575414586
 Cu         6.4403032769        6.7136090333        6.1646180154
 Cu         3.9100972517        6.7571777789        6.3335442744
 Cu         1.3515554238        6.6323239459        6.2597773660
 Cu         0.0668401753        8.8481899340        6.2016415738
 Cu         7.7291917054        8.9071342251        6.3469051934
 Cu         8.8712007001        2.1950288279        6.1084476182
 Cu        10.2314051240        4.4357192625        6.2207427411
 Cu         2.6211852834        4.5098099199        6.2680933206
 Cu        10.2962009985        8.8794019650        6.3089911106
 Cu        11.5862223932        6.6511897429        6.0812563058
 Cu        -0.0011601519        4.4535899907        6.2420341625
 Cu        14.1656927190        6.7312225623        6.1790690994
 Cu         5.0783882181        8.9150700383        6.2420458994
 Cu         8.9287878183       11.1662735470        6.3072250582
 Cu         7.6651278138       -0.0545712060        6.2841141849
 Cu         6.3803773391       11.0402770716        6.2419615021
 Cu        11.4487036776        2.2808923055        6.1722539405
 Cu        12.8419736652        4.4678558926        6.2643684736
 Cu         7.6688051598        4.3792096426        6.2386790460
 Cu         2.6390528890        8.9235659896        6.2549893370
 Cu        12.7945828402        9.0048384841        6.2016685429
 Cu         0.0345679280        0.0733172194        6.1953708996
  O        16.4253385095       -2.5677287557        9.4364810701
  O        10.4611925750        7.0424860724        9.7454824434
  O         7.7513449200       -1.3863390598        9.3985584969
  O        -2.4418481664        1.7513362961        9.0903130610
  O         6.4761499171        9.6364676475       10.3383922691
  O         2.5989866734        5.9897279663        9.7484444581
  O        14.3695508914        8.7152415476       10.2308574221
  O        13.1176144429        6.2435985127        9.2605226364
  O         7.6618797667        7.2214096539        9.4032589404
  O        13.3710045930       -1.5157079076       13.3029419241
  O        16.0632413804        4.1827770819        9.4942572799
  O        -5.0432935501        0.5606315188        9.6686176860
  O         4.0108259442       10.1234707721        9.6300499921
  O         5.4253146057        0.1446771188       15.4542182687
  O        13.3637360761        3.8826009734       10.9580276094
  O         9.5020101145        1.0905698106       12.2847251262
  O         6.0196975570        8.3380209679       12.8916264234
  O         9.8186741279        8.9920044534       12.1945348706
  O         1.8220794002        9.3709033708       13.4747420253
  O         4.0858291359       -0.5183981456        9.5739899541
  O         2.0251740339        1.0064817385        9.1199325330
  O        14.5961910815        7.3663260193       14.4751055961
  O        13.1966117030       11.0346468743       10.3527106056
  O         5.8301516848        3.9227809217       12.5287070682
  O         6.9546259420        1.1812124927       12.6845010947
  O         4.4707229544        6.3389467571       12.1853512452
  O         6.6321090095       11.6613953052       12.6745475503
  O        16.4006853434        7.4214850976       11.4511544809
  O        10.9696517020        9.6956220228        9.0927585469
  O         2.8878901504        0.6059947348       14.0519729701
  O        -0.3536093353        1.1270777507       12.2963417577
  O        12.3637299596        3.9868755640       13.4679649135
  O        10.7319241070        1.8440429884       14.3055308580
  O         3.3393191315        2.7515550030       11.8854204073
  O        -0.4844487954        9.8805944898       14.5844325303
  O         2.7342320609       11.5925164485       12.2157281773
  O         8.6797233242        1.3711103693       16.1397259353
  O        12.1390955262        6.1153006790       14.9052174696
  O         8.3822553661        7.9071398409       14.4128013676
  O         9.3262965798        5.2700487564       14.4004185660
  O        14.8246075489        3.3525975849       14.2319247874
  O         2.4712885765        6.6637614238       14.1940875539
  O        12.0451055150       12.8772487268       15.5324641659
  O         8.0491949798        5.1634348473       12.1535899562
  O         1.4690551933        9.8998415620       20.3702274748
  O         0.7862185018        1.2576530920       16.0842816219
  O         4.4566639905       -1.7847880038       16.7440636348
  O         1.2071530229        4.6444247063       12.7386182006
  O         5.6801259053        2.9958090802       15.0874455766
  O         7.5405309280       10.6143138203       15.4749192732
  O        11.9827943302        6.4966248888       17.6291588665
  O         0.6425744047        8.1199531559       16.9963838218
  O         4.5753534157        6.1067979618       15.9885785456
  O         0.1043890087       11.8824516412       16.6396235899
  O        13.8021633770       13.0521196765       18.9955294130
  O         2.0245111048       11.5534208174       18.3027651661
  O         1.5493083648        2.5139576353       18.1883804749
  O         6.7134727932        3.2779188466       18.2011874747
  O        13.2987811414        2.7569354134       18.4873788978
  O         4.2016935161        9.4139951939       14.7955495273
  O         9.6129420826       11.4804368563       17.2245525539
  O        11.8159348983       12.1061445928       20.3205099460
  O        10.9396530129        4.0372791049       18.7870510860
  O         8.9926758522        3.8609622580       16.9721870831
  O         1.9511153410       13.5892727321       20.0175490317
  O         4.0295049404        1.3046874740       17.7676605370
  O        10.1791513882        8.9179549260       17.9421724232
  O         3.7036940368        5.7918009769       19.7906717764
  O         6.6874468253        5.6444276387       20.0488125033
  O        15.3935882924        3.8067443272       19.8309583694
  O        -0.9814762921        6.5592983772       18.8934083434
  O         5.1583719281       11.7703433389       19.6375152202
  O         3.7589203643        4.1543263711       17.5900122582
  O        12.0034320926        9.3342696870       20.3776188068
  O        -0.2769675220        1.6674107531       21.5921287857
  O         6.4399246852        5.9289536188       22.7572826179
  O         9.3659950110        6.2355130885       23.0494407272
  O         1.9909171546        6.5965519013       22.0483996593
  O        10.3441462456        4.1089318622       21.4636521359
  O         7.7815192782        7.9714247922       18.9112863474
  O        -0.8994765668        8.4306150027       20.9714014783
  O         2.7674419711        8.2233226772       18.7856252954
  O        -0.9285110981        6.5177649907       23.3355038456
  O         5.0257747371       17.2258203402       23.8691608789
  O        12.7457288291       13.7824558196       22.5788559819
  O         5.5853773367       10.1725624509       21.8318597902
  O        13.0078420840        4.2075438147       22.6336609529
  O         4.3472209894        7.9644820151       22.6719733154
  O         9.2156586739       12.0125602155       19.9658339838
  O         1.0091334748        2.1259283465       23.9285836010
  O        17.8043749367        4.3362036923       24.0676760245
  O         1.8557432128       11.0943742808       23.0602421679
  O        12.8689971528        8.7454106642       23.8719940728
  O        10.3332251134       11.5637977026       23.2895309640
  O        10.0509808333        1.7232545059       22.8528515643
  O         6.5437598316       13.9938785637       19.6471842939
  O         5.3015448977        8.3324823325       17.6047540218
  O         5.3203992486       12.5263417379       23.1806856583
  O         6.4864353292        1.8393777393       22.9449650371
  O        10.2393214418        8.8507396218       22.6590679493
  O         8.1462490494        9.6136802069       20.8659983785
  O         2.6090676928       13.3598443761       22.6894554612
  O        -0.9495623071       11.2683894601       23.8423465054
  H         7.8962805496       -1.4701412308        8.4207185521
  H         6.9203365080        8.9674663699        9.7647774619
  H         2.8633744238        6.1565662556        8.8108145573
  H        16.6347118801       -2.7094235503        8.5122143268
  H        13.1568461839        6.2723729874        8.2897730332
  H         5.0879723652        2.1818957978        9.4970545348
  H         1.9551452841       10.6447475649        9.8574747445
  H         7.2666745243        1.1413659613        9.3152725928
  H         4.7521455263        4.6977952332        9.2873699996
  H         9.3305765528        2.6088919500        8.9451518475
  H        11.3651212538        6.6295371802        9.4897918599
  H         9.6736370639        6.7227762599        9.2702057893
  H         5.8011899443        6.9126959691        9.1948844778
  H         9.1385351775        4.9954882565        8.7987967775
  H        -2.7795268656        2.0825844408        8.2754571417
  H         7.1703123737       11.0901827968        9.4936900163
  H         1.8562941321        5.2178683428        9.7269087077
  H        -0.4793563883        9.1795638141        9.5449160163
  H        15.6555784369        4.2287205464        8.6073825367
  H        -4.1566827482        0.7201084180        9.4026505369
  H        13.6601160622        7.0063661551        9.5988689511
  H         5.4894295939        9.7035552680       10.0167353868
  H         9.7865459013        0.5753353236        8.8578250952
  H         6.0264843151        0.2125134913       14.6403289571
  H        -2.5325473534        2.4067314270        9.8046064285
  H         3.9395051100       11.1647912192        9.4933200989
  H        13.0809711296       -1.7543229392       12.3920198729
  H        13.2462769249        4.7937043708       10.5067068970
  H        15.0170827737        8.5771219022       10.9340111804
  H        12.6309151486       -1.0601111577       13.6913382181
  H         8.5541546278        1.3629000460       12.4904501481
  H         9.2183003467        8.6799885682       12.9078844871
  H         9.5956621298        1.1878871139       11.2727495493
  H         1.8506830142        1.3481241378        8.1950254865
  H        13.6385036252        7.0041528029       14.4561522429
  H        15.1204391190        6.7941732175       15.0693629539
  H         4.5243030443        0.4840783553       15.0849354288
  H         1.5030107711        8.7961421365       12.7352305111
  H         4.0535714917        9.6752999862        8.7626755033
  H         6.6641909300        4.5590383318       12.3958712593
  H        15.3363375002        3.9820140796       10.0477035984
  H        13.5294490993       -3.1737335866       10.4566008360
  H         5.4254885789        7.5839673209       12.6975189589
  H         0.9675217507       -3.7100471803       13.8542046749
  H         6.2377097233        8.6428059574       11.9406436321
  H         9.8755316598        8.3058947816       11.5351228154
  H         4.7498863557       -0.5230974150        8.8835837464
  H         3.3160819109       -0.1098836483        9.1498713344
  H         6.2958147971       -2.3797736342       12.0723473799
  H        12.9890592673        4.0485022538       11.8274230656
  H         4.0592966882        6.2557418944       11.2677743270
  H         6.4627403391        0.3693648928       12.5090472947
  H         4.8804036652        5.4870132109       12.3106412764
  H        -1.1023174498        0.7430942870       12.8143383270
  H        12.4808301874       10.7847375043        9.7379871562
  H        10.2200568328        9.9049541585        8.5429765311
  H         2.7570031503       -0.2980385124       13.6503751746
  H         2.8066032802        1.2346882849       13.2422469851
  H         2.3575776970        1.7317682407        9.6866728478
  H        10.3733613199        1.4422093052       13.4132125365
  H         5.7300823374        3.7678228307       13.5082677559
  H        17.1042571688        7.0265959922       10.8326979323
  H         6.3759748664        1.9224303097       12.4183282163
  H        -0.0419255137        1.9855920194       12.8154050860
  H         6.7590227569       11.1423110997       13.5413352957
  H        11.2395454776        6.2910296465       14.5804725470
  H        14.2201072078       10.4276880630       13.9576960201
  H         8.1286784726        8.5111980369       15.2199786715
  H        -0.8466764114        8.9663014031       14.6812351480
  H         0.8508762240        6.6348009136       12.0439266062
  H         4.2521571480        3.0309132503       12.1416150845
  H        11.5168459710        3.3888484828       13.6527524097
  H        10.7909049280        8.7400021880        9.3416440880
  H         3.5891971776       11.3758206509       11.8545445170
  H        12.3734003379        4.6610963158       14.1888942840
  H         3.2092148200        6.7244744778       13.4794146220
  H         8.6785460515        5.2179538447       12.9573399795
  H        15.1496494340        2.7356644435       14.9481447191
  H         9.1941715739        1.2021072931       15.3744107049
  H        11.3906812954        1.1983245021       14.7380535714
  H         8.8256640752        6.1420376474       14.5535055993
  H        13.8775757568        3.2236620793       14.0066292556
  H         9.1525066202        4.7095779902       15.2204963657
  H         7.4860765237        7.8651508528       13.9691998230
  H         2.7630194571        3.4523216217       12.3771791891
  H         2.3355650045       10.8041546514       12.6251276865
  H         1.3742004612        1.0259361097       15.3426817396
  H         8.4219514754        5.3642016286       11.2552239625
  H         8.6353319034        0.6135840219       16.6754898918
  H        12.1565031843        6.3335242090       15.8949523019
  H         5.0505506380       12.2084513390       16.4543004840
  H         0.6390103653        9.4475926276       20.6391783103
  H         2.1844231765        7.6433095488       14.2189525393
  H        11.3191918873       12.6824808833       16.2129804387
  H         6.7401122831       10.8101741197       15.9856025468
  H         0.0008848246       11.2625434782       15.9463624863
  H        12.7938366005       12.3194960777       15.8172867480
  H        15.9488223172        4.3168719819       13.3757422293
  H         6.0330576814        3.7570634673       15.5942004135
  H        11.5293431530        5.6460083175       17.9101041827
  H         1.7880686067       10.2317297171       21.3071721744
  H         0.2303006901        0.4291559130       16.2208101041
  H         3.7095986911        6.3196722743       15.5934978487
  H         1.7554519298        5.3412192438       13.2669630252
  H         4.2818676016       10.9106651049       15.9574957452
  H         6.7788634003        2.4006598299       18.5778488013
  H        13.2840730727        2.8554963745       17.4871439228
  H         0.4038555112        9.0566058928       17.0677004710
  H         6.1786149652        2.1490149264       15.3340713913
  H         8.3051001569       10.9980447515       15.9929048918
  H         1.2048608826        1.9899814389       17.4456692658
  H        14.1264639761       12.6182876506       18.1733139558
  H         9.7732301117       10.5068073457       17.5266048279
  H         2.5503924610        2.7842264957       18.0186711452
  H         1.5676790614        8.0294284803       17.4650074489
  H        11.2307267178        7.1307648686       17.6914888538
  H        13.6744971863        0.7356325102       18.6678083103
  H         0.8945532043       11.7129535410       17.2804242124
  H         1.9653385686       10.7887256962       18.8348202426
  H         4.8602254310        6.8447094560       16.5252270924
  H         3.2742230553        9.5903833609       14.4625200092
  H         7.5785818548        3.4427593244       17.7290279163
  H         1.8107279913       14.2209079937       19.2870788826
  H        12.6030266614       12.3365687941       19.7112849410
  H        12.0876349556       12.6345969208       21.1144003105
  H         4.9923467884        1.1891825858       17.4714977196
  H        11.7529713645        3.4303575689       18.7728360850
  H         8.9256473801        2.9134553012       16.6792755556
  H         9.2352921744       11.9553450087       17.9618880570
  H         2.9206353626       11.6186834585       17.8274695751
  H        14.0017101683        3.3222991389       18.9702394349
  H         9.8014556051        3.9482649491       17.6211901134
  H         3.9488860251        0.8932286223       18.6186254819
  H         4.7377925310        9.7018355153       14.0470498124
  H         6.7952550574        4.7518929962       19.6045380682
  H         9.2889863227        8.5184887338       18.2842448785
  H         4.0230928469        4.8484755375       16.9650543430
  H         2.0111659435       12.7913767457       19.4169342544
  H         7.2654188553        6.3550714145       19.6309322700
  H        10.5119798114        3.9800167013       19.7040089331
  H        12.0156543951       10.3423266433       20.3507839591
  H        -1.9177652359        6.3711797318       18.6040005534
  H         4.7294750925        5.8125094522       19.8480630980
  H         0.8044570106        3.4363154310       19.2484458359
  H        10.6710535993        8.9961984025       18.8066244149
  H         6.6390812848        5.8729040536       21.7863220874
  H         0.0809562084        0.8706062363       21.1702936940
  H         3.5588097849        5.0145477385       19.2013941743
  H         2.3920566980        5.9788610465       21.3636541859
  H         5.3399421965       11.1034327092       20.3126597300
  H        -0.1453672648        2.4726252856       21.0471376597
  H        -0.6178285053        6.8302058956       17.9942870372
  H        15.3136909401        4.7075269631       19.6090211342
  H         9.6173912527        5.4659387794       22.4635845299
  H         4.8841568859       11.3358616882       18.8405264392
  H         4.5420250872        3.5131430158       17.7354543034
  H         7.3096337665        6.1836961261       23.0952271188
  H        11.3748706454        9.2002967480       21.2027964685
  H         3.0571303814        7.3696708671       19.2376424205
  H        -1.8234947762        8.8577201430       20.8769623364
  H         6.8558034884        8.0748185144       18.4570446221
  H         2.2125385965        8.7441748878       19.4524664224
  H        10.0816734460        3.2565461050       21.8549896397
  H         5.4608380331        4.7596206507       23.4165138761
  H        -1.8324159134       14.4113505156       22.3398460706
  H        14.4688351131        7.8645756066       20.1529284070
  H        11.3275675198        4.1107638408       21.7565818513
  H        10.1610361516       12.1397971901       20.1558432481
  H         2.7586315279        7.1514658570       22.3983509371
  H        13.3309744880        3.8981588186       23.4796610762
  H         9.8451300684        6.0610442296       23.9071154652
  H         5.0691396881        7.3191461453       22.7428170019
  H         7.7966997996        8.6229502005       19.7220457851
  H        -0.3723757269        6.4191132602       24.1219827731
  H         0.4930993739        2.0659590282       23.1113169947
  H         5.5572767173        3.0805444472       23.6828731784
  H        -0.3176510757        6.7868588816       22.6114997848
  H         8.8056812867       12.8061869771       20.3497096131
  H        13.0557311309       13.1354041694       23.2777423967
  H         5.2595856524       10.8752848243       22.5481836490
  H        13.4802763815        5.0532080071       22.6258176218
  H         4.9936668797        9.3989027212       22.0445420782
  H        13.4700245097        7.9625174321       23.7968547094
  H        17.5463673322        5.1780150261       23.6181850256
  H         5.4080907904        9.2681055374       17.2765005093
  H         4.1691554625        8.2337442461       23.6093527143
  H         6.0138398911       13.1026248367       19.5820578652
  H        10.3511884126       12.1841098074       24.0205002877
  H        18.7104055851        3.9861643125       23.7830858028
  H        10.9626147877        1.3371791654       22.9443729588
  H         2.1906868451       10.6045359810       23.9003433024
  H         1.4875625749        3.0388870859       23.8749695801
  H         4.3693744931       12.7266189012       23.1133011799
  H         9.3492821870        9.0504383152       22.2984107901
  H        12.0402069439        8.4576645557       23.4244941425
  H         2.1020173344       12.0682419171       23.1178037298
  H         6.2135510213        0.9019640062       23.1707300925
  H         7.3070335806        9.8625399753       21.4105038817
  H         8.5170119837       10.4802273828       20.5579392183
  H        10.0613352469        7.9334661093       22.9205317336
  H         2.1549799018       14.1214415739       22.9877511783
  H        10.0825557159       -2.5869437000       23.7356638841
  H         2.5502138923       13.3897206434       21.6894472009
  H        13.8884118562       10.4430929969       23.7713067063
  H         9.6019196965        1.3925560037       23.6824309982
  H        -0.0651863292       11.1327550154       23.5250068524
  H         6.5996443805       14.1341541066       20.5975089687
  H         4.4120684950        8.2170551493       18.0983872394
  H         5.4485508599       12.1706771683       24.1065030846
  H         7.0991410128        1.9797056502       23.7186490042
  C         7.2006737540        2.1874635785        9.1410705407
  C         5.9298618788        2.8017316017        9.2387306367
  C         5.7620612095        4.1971170980        9.2240364758
  C         8.3167509136        3.0131238630        9.0481531983
  C         6.9125449898        4.9962717393        9.0986176069
  C         8.2078520599        4.3652818019        8.9372363063
  C         6.7512109527        6.4252344228        9.1630430223
  K        -0.2474847801       -0.0319957283        9.9397174675
  K         9.6748073009       11.5636092845       11.2451840481
