      466
1000
 Cu         0.0000000000        0.0000000000        0.0000000000
 Cu         0.0000000000        4.4270557290        0.0000000000
 Cu         0.0000000000        8.8542442710        0.0000000000
 Cu         1.2779405470        2.2135942710        0.0000000000
 Cu         1.2779405470        6.6406500000        0.0000000000
 Cu         1.2779405470       11.0677057290        0.0000000000
 Cu         2.5560344530        0.0000000000        0.0000000000
 Cu         2.5560344530        4.4270557290        0.0000000000
 Cu         2.5560344530        8.8542442710        0.0000000000
 Cu         3.8339750000        2.2135942710        0.0000000000
 Cu         3.8339750000        6.6406500000        0.0000000000
 Cu         3.8339750000       11.0677057290        0.0000000000
 Cu         5.1119155470        0.0000000000        0.0000000000
 Cu         5.1119155470        4.4270557290        0.0000000000
 Cu         5.1119155470        8.8542442710        0.0000000000
 Cu         6.3900094530        2.2135942710        0.0000000000
 Cu         6.3900094530        6.6406500000        0.0000000000
 Cu         6.3900094530       11.0677057290        0.0000000000
 Cu         7.6679500000        0.0000000000        0.0000000000
 Cu         7.6679500000        4.4270557290        0.0000000000
 Cu         7.6679500000        8.8542442710        0.0000000000
 Cu         8.9458905470        2.2135942710        0.0000000000
 Cu         8.9458905470        6.6406500000        0.0000000000
 Cu         8.9458905470       11.0677057290        0.0000000000
 Cu        10.2239844530        0.0000000000        0.0000000000
 Cu        10.2239844530        4.4270557290        0.0000000000
 Cu        10.2239844530        8.8542442710        0.0000000000
 Cu        11.5019250000        2.2135942710        0.0000000000
 Cu        11.5019250000        6.6406500000        0.0000000000
 Cu        11.5019250000       11.0677057290        0.0000000000
 Cu        12.7798655470        0.0000000000        0.0000000000
 Cu        12.7798655470        4.4270557290        0.0000000000
 Cu        12.7798655470        8.8542442710        0.0000000000
 Cu        14.0579594530        2.2135942710        0.0000000000
 Cu        14.0579594530        6.6406500000        0.0000000000
 Cu        14.0579594530       11.0677057290        0.0000000000
 Cu         0.0000000000        2.9513704860        2.0869457760
 Cu         0.0000000000        7.3785590280        2.0869457760
 Cu         0.0000000000       11.8056147570        2.0869457760
 Cu         1.2779405470        0.7379090280        2.0869457760
 Cu         1.2779405470        5.1649647570        2.0869457760
 Cu         1.2779405470        9.5920204860        2.0869457760
 Cu         2.5560344530        2.9513704860        2.0869457760
 Cu         2.5560344530        7.3785590280        2.0869457760
 Cu         2.5560344530       11.8056147570        2.0869457760
 Cu         3.8339750000        0.7379090280        2.0869457760
 Cu         3.8339750000        5.1649647570        2.0869457760
 Cu         3.8339750000        9.5920204860        2.0869457760
 Cu         5.1119155470        2.9513704860        2.0869457760
 Cu         5.1119155470        7.3785590280        2.0869457760
 Cu         5.1119155470       11.8056147570        2.0869457760
 Cu         6.3900094530        0.7379090280        2.0869457760
 Cu         6.3900094530        5.1649647570        2.0869457760
 Cu         6.3900094530        9.5920204860        2.0869457760
 Cu         7.6679500000        2.9513704860        2.0869457760
 Cu         7.6679500000        7.3785590280        2.0869457760
 Cu         7.6679500000       11.8056147570        2.0869457760
 Cu         8.9458905470        0.7379090280        2.0869457760
 Cu         8.9458905470        5.1649647570        2.0869457760
 Cu         8.9458905470        9.5920204860        2.0869457760
 Cu        10.2239844530        2.9513704860        2.0869457760
 Cu        10.2239844530        7.3785590280        2.0869457760
 Cu        10.2239844530       11.8056147570        2.0869457760
 Cu        11.5019250000        0.7379090280        2.0869457760
 Cu        11.5019250000        5.1649647570        2.0869457760
 Cu        11.5019250000        9.5920204860        2.0869457760
 Cu        12.7798655470        2.9513704860        2.0869457760
 Cu        12.7798655470        7.3785590280        2.0869457760
 Cu        12.7798655470       11.8056147570        2.0869457760
 Cu        14.0579594530        0.7379090280        2.0869457760
 Cu        14.0579594530        5.1649647570        2.0869457760
 Cu        14.0579594530        9.5920204860        2.0869457760
 Cu         3.8862404546       12.5405284687        4.1377418756
 Cu        11.4521038512       12.5864728980        4.0180599918
 Cu         2.5359779579        1.4569115111        4.1559636759
 Cu         5.1360649024        1.5698264859        4.1165499224
 Cu         2.6537788397        6.0310292225        4.1356912084
 Cu         3.7819046900        3.6883477883        4.1334308184
 Cu         6.3571758072       12.6948114367        4.1025249189
 Cu         1.3401075552        3.7722204248        4.0862342593
 Cu        12.7838517137        1.5453004771        4.0758517213
 Cu        14.0567814151        3.7869210321        4.1109869877
 Cu        10.2825753099        1.5197422137        4.2104682810
 Cu         9.1005623478        8.2086237911        4.0989398821
 Cu        12.8165399590        6.0036254915        4.1573827747
 Cu        -0.1000998956        5.9888869543        4.0905102756
 Cu        10.2154376796       10.4469437606        4.2345705711
 Cu         8.7939768310       12.5957493111        4.2355814833
 Cu         5.1301141649       10.2743905664        4.1112004805
 Cu         1.3366538813        8.1725887005        4.2164887803
 Cu         5.0573913392        5.8739588705        4.1340131249
 Cu        10.2529857724        5.9270293181        4.1003626052
 Cu         2.5341318752       10.3653317650        4.1513291692
 Cu         7.7588551813       10.3058664704        4.1063543228
 Cu         3.8237245110        8.1581598343        4.1808686991
 Cu         7.6881972090        1.5333310610        4.1874672262
 Cu         6.4171747519        8.1755834315        4.1527165991
 Cu         0.0793264603       10.2584521595        4.2144541553
 Cu         6.5025647960        3.8097693873        4.2114487559
 Cu         1.2776536171       12.5074714504        4.1382282486
 Cu        12.7813145670       10.3582717134        4.1668481402
 Cu        11.5023505149        3.6809436930        4.2724445279
 Cu        14.1170035694       12.5110678902        4.1468838880
 Cu         8.9675307970        3.7144791316        4.1896700877
 Cu         0.0490788291        1.4741087892        4.1508790159
 Cu        14.1375506584        8.1642592489        4.1219797799
 Cu        11.4921191607        8.1667294205        4.1248666679
 Cu         7.7662269482        6.0602021518        4.1236095565
 Cu         2.5592904718       -0.0333398732        6.2669057110
 Cu         5.0951338400       -0.0164180455        6.2591776192
 Cu        12.7817122178        0.0136344626        6.1680874302
 Cu         1.2613822214        2.2352748844        6.3794302366
 Cu         5.0808446911        4.5085132281        6.2490791136
 Cu         3.7897057743        2.1969900431        6.0842617982
 Cu         8.9889462066        6.8409666111        6.3014250514
 Cu        14.0282004029       11.0196554824        6.2505876506
 Cu        10.2032546254        0.0221991080        6.2457932564
 Cu        11.5731012279       11.0831477833        6.2532498415
 Cu        14.0955053691        2.3119887353        6.1132368652
 Cu         6.3862715929        2.2078677023        6.1811505604
 Cu         1.2396449766       11.0350839889        6.2949643975
 Cu         3.8249074876       11.1307325844        6.2883638431
 Cu         6.3642716629        6.6360002794        6.0993841858
 Cu         3.7981176523        6.7888404042        6.3300432449
 Cu         1.3084755200        6.5746198465        6.1916660676
 Cu        -0.0385830790        8.7583445610        6.2327164583
 Cu         7.6501092708        8.9272103015        6.2133242236
 Cu         8.9349322130        2.0597758982        6.1524300606
 Cu        10.3283788595        4.4814258674        6.1980821267
 Cu         2.5898225201        4.4120318989        6.0890425388
 Cu        10.3948011985        8.9536783199        6.2781477596
 Cu        11.6060601211        6.6578357347        6.1015661093
 Cu         0.0499050564        4.5037088960        6.1309172327
 Cu        14.0378075763        6.5436467788        6.3400416935
 Cu         5.1736802726        8.9297087295        6.2189578002
 Cu         8.9454051056       11.0686352145        6.3190710645
 Cu         7.6019493071       -0.0865180262        6.4399820654
 Cu         6.3023185443       11.0288101245        6.1106094234
 Cu        11.5057123641        2.2103806283        6.2151127345
 Cu        12.8462355357        4.4485780156        6.2446097821
 Cu         7.8662308917        4.5340661268        6.1711501905
 Cu         2.5639789676        8.9635421646        6.3030325098
 Cu        12.9754352323        8.7735293469        6.1721749346
 Cu         0.0667888586        0.0720889230        6.1110944579
  O        14.4407358577       -1.7070098294        9.3067061611
  O        10.0462363931        8.5957282753        8.5362812625
  O         3.0372829166        1.4374937978        9.3987057846
  O        -0.7794185563        3.6652991358        9.4164678027
  O         4.7795237449       11.9912756732        9.3008302502
  O         1.3616217278        7.7012083117        9.4467698285
  O        13.5641923196        9.8297882196       11.5433604514
  O        12.1059040337        6.6654466580        9.4376793940
  O         7.5328279962        7.9610629894        9.3785932720
  O        13.1107822418        0.2794395726       12.9576465724
  O        14.3442358952        7.4128591733       10.7068953914
  O        -4.6271521196        2.5468256970        9.7454250160
  O         1.7599189754       10.6447722697        9.3558704115
  O         6.4299722227        1.9527231754       11.8873859871
  O        12.4040845519        4.3115123868       10.8510557997
  O         8.8202163532        1.6640394468       11.2158074188
  O         5.2107862387        9.7787603311       11.4898929704
  O         8.6430032919        9.7908257833       11.1904677902
  O         1.4633943957       12.3954739516       11.4659027311
  O         3.5937026308        2.6262880193       12.0714161590
  O         1.6549813307        4.7932869513       10.0203669923
  O        11.1311849816        8.9516354468       11.7586320322
  O        11.9469621795       13.1696266529       10.3349415965
  O         4.0602733632        5.4786980831       12.6881890213
  O         6.6514517492        4.8954028510       12.6841186493
  O         3.3115758935        7.8999299822       11.5392198805
  O         6.3866638100       12.6197591352       12.6682294626
  O        13.8917138326        9.1569113545       14.4495883276
  O        10.3871067943       11.4646113353        9.1757809442
  O         2.8811754280        1.4981875273       14.3837714294
  O        -0.1174626009        1.9985004607       12.2782654944
  O        11.8286077682        4.7346673630       13.5400296231
  O         9.9991445556        2.5074483759       13.5614597455
  O        -0.3711503723        5.3201579391       12.3603000130
  O        -0.5707916464       11.6533535957       13.8542420738
  O         3.8364433087       11.8707538998       12.6756789611
  O         7.7782420783        3.0461648820       15.2378019662
  O        11.0332130658        7.3637837677       13.8095708104
  O         6.9053615262        9.1006850737       13.5102271955
  O         8.5057207705        6.9743769780       13.5472093704
  O        13.6948121923        4.2739447350       15.3726709391
  O         2.7827224165        9.1775136426       14.2682386479
  O        11.3469362865       13.9463299795       14.8921820562
  O         3.6565574755        5.6014154304       15.3432670309
  O         0.0237049796        9.9368291826       18.1431539602
  O         0.7796209224        2.6839033534       15.8982815917
  O         5.4389385552        1.4230098019       15.9367990176
  O        -0.4560824359        6.7225071205       14.5945652705
  O         4.9177401882        3.5298988726       17.5379433334
  O         6.9323704529       11.3640677996       15.0908926463
  O        11.3746220922        9.2658463446       15.5463648695
  O         2.2089185117       11.9993397154       14.8413146425
  O         1.5635607654        7.5326073546       16.2553490657
  O        -0.8531322725       13.6110043551       16.2802829630
  O        12.2643795290       14.6217020267       17.5544533098
  O         1.0998844419       12.3767348778       17.6108355666
  O         2.4163219819        2.8712439486       18.1854045626
  O         5.9730226557        7.4902455333       15.5982243568
  O        12.7732341163        4.0964732557       18.2904876677
  O         5.7570011891       12.3293504763       17.3015854676
  O        10.0192034888       11.6970095272       15.9665199242
  O        11.7261780934       13.0603390002       19.5178663614
  O        10.4010810644        6.0273977501       17.9015447604
  O         8.1858197819        5.6514277295       16.4176763196
  O         1.7128524477       13.9283410249       19.6772086374
  O         6.0951456511        5.0571929060       19.8401429798
  O        11.8298342356        8.2831997825       18.3213749772
  O         2.7400361435        7.5726164297       18.9060867444
  O         5.6373572075        7.7075088688       18.8172407974
  O        14.8280103372        4.8169884396       20.1221501113
  O        -0.9139272948        7.5699131181       19.3050597736
  O         4.9793675505       13.1032133058       21.2600545162
  O         2.1084174154        5.0367491441       19.7337505816
  O        12.5809493148       10.4116783291       19.8605901356
  O        -0.3897358451        1.9664600216       20.9112222340
  O         5.2335569603        4.2609936193       22.3756633629
  O         7.5820812939        3.1314709832       23.3314105102
  O         1.7778699757        9.6236693608       20.8231501941
  O         8.7394388204        6.1663117502       20.2375055740
  O         8.6739478506        8.8535034678       20.6609977411
  O        -0.6010827550        8.4588292331       21.7728323060
  O         3.6809976301       10.3221565420       18.0788005875
  O         0.5010153441        6.6850840513       23.3704299077
  O         4.8543753291       14.9403364595       23.3362856294
  O        13.0281741006       14.0236599436       22.0932703572
  O         3.4086666274        8.9963324903       23.1057546850
  O        11.5708581986        6.3461568747       23.0134037738
  O         5.1193693394        6.7541711768       23.2277314606
  O         9.2517334376       12.5525274510       20.6511999588
  O         1.4046320465        2.4184465508       23.8934627922
  O        17.5264916814        4.6214652003       22.9461336224
  O         1.2952189432       10.8378858936       23.8545615943
  O        12.6139910528        9.8062036411       22.5716025853
  O        12.1907255973       16.3844861965       23.2376927116
  O        13.8713512752        5.0918334686       22.6066810707
  O         8.0571962480       13.5632288145       22.8692814767
  O         7.0544338197       11.7355187352       19.6209015823
  O         5.2890490231       11.1259283222       23.3302448412
  O         9.7384617965        4.5833205105       22.6217736270
  O         9.8613484982        9.0271349854       23.7735390066
  O         7.1402624183        8.8803481575       23.1761329593
  O         2.3652506443       13.3375703739       23.7037140551
  O        -1.2128023058       12.0164535570       23.8769234737
  H         3.2416504592        1.6888532481        8.4702144768
  H         4.9593297512       11.8104660412        8.3706533736
  H         1.3941762878        7.7153958722        8.4415456654
  H        13.9836383129       -1.8753878829        8.4256341300
  H        12.3090772888        6.1881055171        8.6393113115
  H         4.3640508833        3.1988255006        8.5682964972
  H         0.0151737476       11.1433198849        9.1251404865
  H         6.6944106014        2.0143026713        8.5887619658
  H         4.2646626242        5.6436258663        8.7777071509
  H         8.7155336603        3.2850361890        8.3654120274
  H        10.6432526332        7.8109061964        8.7376449551
  H         9.1645045949        8.2288249258        8.7008965550
  H         5.5420418467        7.7958573009        9.2319105749
  H         8.5769010331        5.8053892390        9.0195402032
  H        -1.2257004476        3.5574188821        8.5232656389
  H         3.5828879705       13.9396848060        9.5782647655
  H         0.3748108197        7.5799326320        9.7689111612
  H        -1.4013006816       10.4934565335       10.9021895501
  H        14.0804300535        8.1948746319       11.2749986760
  H        -4.1613940706        3.1255219253       10.3327362375
  H        12.9022221204        7.0096023173        9.9094323360
  H         4.9429571091       11.0643375825        9.6629527024
  H        11.2614728018        1.6685533292        9.7352663405
  H         6.4127687228        0.9622925328       12.1728376785
  H        -1.4897319930        3.9798852335       10.0335914373
  H         2.1945583368       10.8571877504        8.4774941100
  H        12.7714046002        0.3914549629       12.0231344913
  H        12.0784181622        5.1389634316       10.3710205523
  H        12.5996021563        9.6302476559       11.3778802072
  H        12.3575624016        0.3968205487       13.6355520305
  H         7.8755387941        2.0343446245       11.2084909898
  H         8.0156843219        9.8079836321       11.9769471656
  H         9.4516382860        2.1345654447       10.5950497972
  H         1.4672800050        5.7034430033        9.8017336344
  H        11.1575672430        8.2058110858       12.3640222232
  H        10.2274967325        9.1745140534       11.5611413424
  H         5.4870180823        2.2937556078       11.9107126777
  H         1.5654258823       11.8045346327       10.6568307580
  H         1.8731709288        9.6184100404        9.3442392817
  H         5.0339410654        5.2407845359       12.7803195244
  H        14.5701729378        6.6575447326       11.2921857590
  H        12.4227781381       -0.2429112175        9.5292052237
  H         4.5499022376        9.0512117406       11.3687083401
  H         0.6848938736       -1.1856589149       11.9753851003
  H         4.6384566399       10.4796838828       11.9499178822
  H         8.1597852251        9.2184368605       10.6098879121
  H         3.2927338664        2.5104351737       11.1647814986
  H         3.6526685271        3.6294867259       12.2703923872
  H         5.4261189676       -0.7835454886       12.9001550096
  H        12.2877204426        4.4267709172       11.8089230450
  H         2.5684057513        7.8538630649       10.8490426429
  H         7.2889084325        5.5903471523       12.9940501410
  H         3.5172064662        6.9375048185       11.6790107338
  H        -0.6844393419        1.3325378558       12.6559937612
  H        11.4243750420       12.3294508984       10.3063167031
  H        10.4875170479       11.6926506052        8.2286777610
  H         2.5827361632        0.5574506207       14.5048681870
  H         3.0604511862        1.7597051946       13.3896402013
  H         0.8569739610        4.3326667557        9.6430071448
  H         9.4430024152        2.3670856480       12.7730258502
  H         3.6981086052        5.6864513910       13.6039242242
  H        13.7976521692        9.2760696025       13.4881096909
  H         6.8248645492        4.1092618327       13.1988749256
  H        -0.5930031580        2.7932335889       12.7003636510
  H         6.9915654877       12.3222365684       13.4176649663
  H        10.0107134010        7.4631935277       13.6507905730
  H        14.1296677753       12.2989039034       13.5007712326
  H         6.8937236557        9.8813627521       14.1036092553
  H        -0.9116710618       10.7969505113       14.1939824834
  H        -1.0950867086        8.3257969717       14.5995736998
  H         0.5358600509        5.1662231807       12.0207143945
  H        11.0442913928        4.0730711753       13.5870517838
  H        10.1475325766       10.4753954171        9.1721381107
  H         3.0919738114       12.0449852726       12.0982051179
  H        11.5146816769        5.7005643198       13.5587348241
  H         2.9764131306        8.9324240574       13.3597776401
  H         4.4656125671        6.0469707238       15.5836884148
  H        14.3702877943        3.6059712281       15.2866980406
  H         8.6629215573        2.7762999843       14.8856499714
  H        10.3402002381        1.6379329664       13.7318139627
  H         8.0078095275        7.8403110327       13.5525830529
  H        13.0062433782        4.2759101300       14.6454222363
  H         8.5660023310        6.6824906367       14.5257373738
  H         6.2044060152        9.2813999962       12.7862211297
  H        -0.2264844400        5.9479103584       13.1634164259
  H         3.5166633181       11.6571679863       13.5653034950
  H         1.4290813112        2.2094040127       15.2687807338
  H         2.9551538698        6.0682552090       15.8695067243
  H         7.2426432680        2.2103191433       15.2426731841
  H        11.1756701057        8.0464746691       14.5155074798
  H         4.6542262149       14.3415481843       15.4720488507
  H        -0.6133377291        9.9292399664       18.8869533727
  H         2.9921943301       10.0211719418       14.6315141700
  H        10.9184554310       13.0938466665       15.1843499441
  H         6.2864268359       11.5681823226       15.8176459005
  H        -1.0973531983       12.9436172027       15.5701465925
  H        11.6881343100       14.4088027952       15.7327195831
  H        14.1718784134        6.1451343720       15.0738506265
  H         4.7428248202        4.1834940464       16.8573436421
  H        12.3568837595        9.3785489053       15.2365182135
  H         0.0904422701        8.9863212864       17.9474110491
  H         0.1490301459        1.9098643906       16.0507332333
  H         2.0595019951        8.1849476806       15.6094755394
  H         0.2747421995        6.8712352598       15.2548431057
  H         5.6300315776       13.9948654066       16.6033616572
  H         6.2385827151        7.8326174240       14.7065115482
  H        13.2867994035        4.2961044903       17.4347306517
  H         1.3539776488       11.6700865833       14.4395036923
  H         5.1356874423        2.7523807526       16.8885771513
  H         7.8059617341       11.6061382827       15.4875064573
  H         1.8652848509        2.8366995737       17.3109423891
  H        13.2340473581       14.3433497664       17.4338785804
  H        10.4520452300       10.8061402954       15.6844688247
  H         3.3099581966        3.1046794817       17.8883224112
  H         2.1304422323       11.8519352660       15.8241744199
  H        11.4593906719        9.0183671298       16.4692852607
  H        12.2949536686        2.3127520086       17.8640748627
  H        -0.0465325267       13.1043647439       16.6962491724
  H         0.8125876803       11.4279078270       17.8261511937
  H         2.0070084854        7.5781198380       17.1806328779
  H         4.9406319511       11.7995623288       17.5634875172
  H         6.7719721446        6.9131033108       15.7852687890
  H         2.1241262718       14.6641908202       19.1265787678
  H        11.8894780532       13.7556650440       18.8245364537
  H        12.1755113470       13.3017108922       20.4031904547
  H         5.8605395291        4.5579189368       19.0332669420
  H        11.2240263354        5.5174590807       18.0263663511
  H         7.8663313023        4.7682273594       16.1687409718
  H        10.2727106478       11.6892592771       16.9123571383
  H         1.3440448104       12.8496616252       18.4370437545
  H        13.4077460674        4.2371084295       18.9943426478
  H         9.0711827214        5.5981709352       16.9146805161
  H         7.1176609357        5.2083256026       19.8181073524
  H         6.3543867924       12.0373856448       18.0222483848
  H         6.1110547998        7.6626271241       17.9440211809
  H        11.2055469011        7.4760797625       18.3504006296
  H         2.2337280144        4.1553156283       19.2926301604
  H         2.4747947617       13.5537672242       20.1806867694
  H         5.7911536863        6.8267088243       19.2964810140
  H         9.9424846211        5.7987978549       18.7215145861
  H        12.4864296725       11.3454779398       19.5401366146
  H        -1.8123156934        7.7039372186       18.8284245552
  H         3.7121460960        7.3669390808       18.8018817030
  H         0.4939647430        4.7006492339       20.1032924760
  H        11.8032105923        8.8931808331       19.1047392508
  H         5.4310780903        4.5347292890       21.4105229544
  H         0.3378483694        1.4225508050       20.5775332927
  H         2.3205302165        6.6897450210       19.2255127574
  H         1.9367599389        8.9449587707       20.1418958646
  H         5.6482919403       12.6559962141       20.6272417065
  H        -0.3812853360        2.7212102470       20.3706747301
  H        -0.8230131493        6.5820658455       19.6973433180
  H        14.4675844716        4.9707072761       21.1023696156
  H         8.4334176418        3.6643196707       23.2055454771
  H         5.4078080379       13.8143691511       21.7921122084
  H         2.3817555502        4.9357598545       20.6488895032
  H         6.1074787152        3.9752885718       22.8597228177
  H        12.5109165162       10.3896916378       20.8407225697
  H         2.7724977787       10.4375729174       18.4790884683
  H        -0.8928282936        8.2300702488       20.8475738156
  H         7.7735072929        8.9919558056       21.1668195534
  H         4.0124519407        9.4502360071       18.3185039949
  H         8.8588160856        7.1238667658       20.3864011656
  H         4.7832624433        2.5795698545       23.0115081117
  H        -1.5122312088       14.3920621807       21.5087755206
  H        15.4741065552        9.0962005606       21.5103216167
  H         9.1306872693        5.7162523716       21.0230672792
  H        10.1719211389       12.7968774795       20.3082886601
  H         2.3968599681        9.4915071500       21.6063503270
  H        11.6606281408        6.9008572760       23.7454624882
  H         7.5466276040        3.2365693134       24.3208752257
  H         5.1427825507        5.7871365749       22.9654233871
  H         9.2848023931        9.6021983952       20.9108337519
  H         0.5049073647        7.2020287394       24.1683105824
  H         0.5530073920        2.3394612422       23.4508919669
  H         5.2460086655        1.7017811109       24.2173923503
  H         0.1226102456        7.2484545922       22.6622597604
  H         8.8948051387       13.0307639911       21.4583079438
  H        13.4595348125       13.3166898470       22.5924857456
  H         3.7992291287        8.1646559508       23.2715392152
  H        12.4433579021        5.9369383196       22.7708027181
  H         4.1491901116        9.6826244579       23.1469308060
  H        13.4220167773        9.1816919941       22.4318286910
  H        17.0213926828        5.4533658778       23.3170574247
  H         7.1532134889       10.8135021439       19.9217405973
  H         4.9817804613        6.6837992347       24.2142732013
  H         8.3346132302       13.2597421959       23.7486415892
  H        12.3158093719       15.4261040605       22.9265719301
  H        18.5050971534        4.7835082735       23.1969010880
  H        14.5651412150        5.2247737974       23.2885723944
  H         1.8257344371       10.0800761808       23.6587066886
  H         1.8493978511        3.2713136421       23.5427044997
  H         5.4039094765       11.8920384723       22.6365892390
  H         9.6328567078        9.9401974452       24.1846013512
  H        11.7934409324        9.4142939174       23.0206201226
  H         1.8718042374       11.6178250494       23.6579380904
  H        10.2919308983        5.3071180302       23.1016995121
  H         6.5616326671        9.7150538290       23.1714008809
  H         6.4721338431        8.2079856361       23.4312928413
  H         9.0079447965        8.6499064119       23.5627293006
  H         2.0872039464       14.2488825242       23.4692535431
  H        11.9598033877        3.1978726210       24.2118376527
  H         3.2914805177       13.3593609244       23.3259452186
  H        13.5219420108       11.2504073689       23.4960275137
  H        13.3348707023        4.2278821455       22.9048797354
  H        -0.2862236004       11.7467706414       23.6746233510
  H         7.7650368860       14.4608479431       23.0072781671
  H         8.0030746440       12.1316484131       19.7556052587
  H         5.2599995394       11.6786553933       24.1541828240
  H        10.4502355337        4.0320481755       22.2675734022
  C         6.5688153219        3.0359006688        8.5991436138
  C         5.3198587607        3.7304879324        8.6464430522
  C         5.2485788176        5.1589334389        8.7761202136
  C         7.7949269320        3.8135728823        8.6237146113
  C         6.4660680886        5.8870463059        8.9262575466
  C         7.6809673340        5.1756497995        8.8765973505
  C         6.4729885691        7.3439682505        9.1379148094
  K         0.2995605361        1.2242746704        9.6494416346
  K         7.9351200448       12.4946621548       10.1925331987
