      466
3000
 Cu         0.0000000000        0.0000000000        0.0000000000
 Cu         0.0000000000        4.4270557290        0.0000000000
 Cu         0.0000000000        8.8542442710        0.0000000000
 Cu         1.2779405470        2.2135942710        0.0000000000
 Cu         1.2779405470        6.6406500000        0.0000000000
 Cu         1.2779405470       11.0677057290        0.0000000000
 Cu         2.5560344530        0.0000000000        0.0000000000
 Cu         2.5560344530        4.4270557290        0.0000000000
 Cu         2.5560344530        8.8542442710        0.0000000000
 Cu         3.8339750000        2.2135942710        0.0000000000
 Cu         3.8339750000        6.6406500000        0.0000000000
 Cu         3.8339750000       11.0677057290        0.0000000000
 Cu         5.1119155470        0.0000000000        0.0000000000
 Cu         5.1119155470        4.4270557290        0.0000000000
 Cu         5.1119155470        8.8542442710        0.0000000000
 Cu         6.3900094530        2.2135942710        0.0000000000
 Cu         6.3900094530        6.6406500000        0.0000000000
 Cu         6.3900094530       11.0677057290        0.0000000000
 Cu         7.6679500000        0.0000000000        0.0000000000
 Cu         7.6679500000        4.4270557290        0.0000000000
 Cu         7.6679500000        8.8542442710        0.0000000000
 Cu         8.9458905470        2.2135942710        0.0000000000
 Cu         8.9458905470        6.6406500000        0.0000000000
 Cu         8.9458905470       11.0677057290        0.0000000000
 Cu        10.2239844530        0.0000000000        0.0000000000
 Cu        10.2239844530        4.4270557290        0.0000000000
 Cu        10.2239844530        8.8542442710        0.0000000000
 Cu        11.5019250000        2.2135942710        0.0000000000
 Cu        11.5019250000        6.6406500000        0.0000000000
 Cu        11.5019250000       11.0677057290        0.0000000000
 Cu        12.7798655470        0.0000000000        0.0000000000
 Cu        12.7798655470        4.4270557290        0.0000000000
 Cu        12.7798655470        8.8542442710        0.0000000000
 Cu        14.0579594530        2.2135942710        0.0000000000
 Cu        14.0579594530        6.6406500000        0.0000000000
 Cu        14.0579594530       11.0677057290        0.0000000000
 Cu         0.0000000000        2.9513704860        2.0869457760
 Cu         0.0000000000        7.3785590280        2.0869457760
 Cu         0.0000000000       11.8056147570        2.0869457760
 Cu         1.2779405470        0.7379090280        2.0869457760
 Cu         1.2779405470        5.1649647570        2.0869457760
 Cu         1.2779405470        9.5920204860        2.0869457760
 Cu         2.5560344530        2.9513704860        2.0869457760
 Cu         2.5560344530        7.3785590280        2.0869457760
 Cu         2.5560344530       11.8056147570        2.0869457760
 Cu         3.8339750000        0.7379090280        2.0869457760
 Cu         3.8339750000        5.1649647570        2.0869457760
 Cu         3.8339750000        9.5920204860        2.0869457760
 Cu         5.1119155470        2.9513704860        2.0869457760
 Cu         5.1119155470        7.3785590280        2.0869457760
 Cu         5.1119155470       11.8056147570        2.0869457760
 Cu         6.3900094530        0.7379090280        2.0869457760
 Cu         6.3900094530        5.1649647570        2.0869457760
 Cu         6.3900094530        9.5920204860        2.0869457760
 Cu         7.6679500000        2.9513704860        2.0869457760
 Cu         7.6679500000        7.3785590280        2.0869457760
 Cu         7.6679500000       11.8056147570        2.0869457760
 Cu         8.9458905470        0.7379090280        2.0869457760
 Cu         8.9458905470        5.1649647570        2.0869457760
 Cu         8.9458905470        9.5920204860        2.0869457760
 Cu        10.2239844530        2.9513704860        2.0869457760
 Cu        10.2239844530        7.3785590280        2.0869457760
 Cu        10.2239844530       11.8056147570        2.0869457760
 Cu        11.5019250000        0.7379090280        2.0869457760
 Cu        11.5019250000        5.1649647570        2.0869457760
 Cu        11.5019250000        9.5920204860        2.0869457760
 Cu        12.7798655470        2.9513704860        2.0869457760
 Cu        12.7798655470        7.3785590280        2.0869457760
 Cu        12.7798655470       11.8056147570        2.0869457760
 Cu        14.0579594530        0.7379090280        2.0869457760
 Cu        14.0579594530        5.1649647570        2.0869457760
 Cu        14.0579594530        9.5920204860        2.0869457760
 Cu         3.9435156978       12.5172434142        4.2264894408
 Cu        11.5966948853       12.4972109082        4.1112400247
 Cu         2.7070486809        1.5807716212        4.1838280590
 Cu         5.1237994798        1.5391444366        4.1488646969
 Cu         2.6225529300        5.7976497636        4.0838661131
 Cu         3.9172800719        3.6350330618        4.0375297699
 Cu         6.3670095814       12.5699000034        4.1742864586
 Cu         1.3614616978        3.7185499484        4.0225112755
 Cu        12.8727296191        1.5900830117        4.1781875854
 Cu        14.2598379735        3.7031426664        4.0920456143
 Cu        10.1900639925        1.4839190559        4.1151117863
 Cu         8.9504139661        8.1326070625        4.1328096116
 Cu        12.8484227949        5.8957866983        4.1226067721
 Cu         0.1336680224        5.9353857755        4.0201642213
 Cu        10.3903689476       10.4135880810        4.0861830129
 Cu         8.9899058965       12.5494953770        4.1455281285
 Cu         5.1441013321       10.3279995589        4.1126130275
 Cu         1.2631237108        8.0248312503        4.0225983013
 Cu         5.0968263418        5.9848079592        4.1336041374
 Cu        10.3089046881        5.9293530908        4.0329920478
 Cu         2.4750788356       10.3173214952        4.1084837839
 Cu         7.7514934715       10.3684997960        4.1168728965
 Cu         3.7377738116        8.2160133923        4.1309386592
 Cu         7.6078303472        1.5265013807        4.1533681489
 Cu         6.3416768726        8.2622190949        4.0697991102
 Cu        -0.0309236891       10.3044497436        4.1367794531
 Cu         6.3651452007        3.8134302953        4.2062279211
 Cu         1.3101187115       12.6577086641        4.1776496180
 Cu        12.8563918166       10.3425221373        4.0414934359
 Cu        11.5190610657        3.7811034911        4.1030740091
 Cu        14.1204282218       12.6605030641        4.1270790811
 Cu         9.0191140255        3.6165758361        4.0694143543
 Cu         0.1862743227        1.5367279366        4.0617284569
 Cu        14.0725256474        8.1153880355        4.1155619231
 Cu        11.5497368802        8.0517268706        4.1797837042
 Cu         7.5817435682        5.9680525628        4.0996279698
 Cu         2.6059927972       -0.0004224005        6.2924083603
 Cu         5.1149625961        0.1417532666        6.3897693045
 Cu        12.9015411917        0.0463831161        6.2502585048
 Cu         1.3348064504        2.2201814189        6.1714706400
 Cu         4.9752649970        4.5673756706        6.2118627959
 Cu         3.8848670241        2.3423877248        6.2560684911
 Cu         8.9007039581        6.6267020647        6.1468605942
 Cu        14.2496525889       11.0784897685        6.2292682206
 Cu        10.2850549745       -0.0536128102        6.1729054434
 Cu        11.5614270292       11.0341238536        6.2676181717
 Cu        14.1406038048        2.3616762733        6.2225856802
 Cu         6.4223451104        2.3546714499        6.3482265304
 Cu         1.3726330349       11.2409145474        6.3368595537
 Cu         3.8844895294       11.0878150503        6.1631052023
 Cu         6.4351587916        6.7061957896        6.4232128909
 Cu         3.8198456215        6.7615701684        6.1604640420
 Cu         1.3403073642        6.6566961638        6.2508098231
 Cu         0.0813354160        8.9286904911        6.2792334056
 Cu         7.6708805803        8.9080786497        6.2350972077
 Cu         9.0283622882        2.1798266293        6.1526205213
 Cu        10.2071573097        4.4641101717        6.0305773770
 Cu         2.5713923628        4.4318402652        6.2822146516
 Cu        10.2117169209        8.7687560438        6.2432842741
 Cu        11.4589895132        6.6159126256        6.2844949821
 Cu         0.0444425283        4.4892024476        6.1603247847
 Cu        14.0807984818        6.7902039858        6.0732737115
 Cu         5.0183180369        8.9753104586        6.1818219999
 Cu         8.9825723686       11.1036750730        6.1847662288
 Cu         7.7613255894        0.1097845423        6.2585934216
 Cu         6.4446115541       11.2651755720        6.2773996110
 Cu        11.6146908866        2.2973171276        6.1362467535
 Cu        12.8619233992        4.4942500343        6.1172662765
 Cu         7.6936605731        4.5663765097        6.1405785183
 Cu         2.5932955420        8.9385390047        6.3162605629
 Cu        12.7773868886        8.8897645347        6.3661097944
 Cu        -0.0285628877        0.1321662036        6.1967472384
  O        14.9792516880       -3.4975656225        9.4292847599
  O        10.9679408958        5.6940932546        8.2497432613
  O         3.9797077221       -0.5362576861        9.4304539091
  O        -1.6159304801        1.3005984909        9.1494759139
  O         5.4203319467       10.2003981174        9.5617214221
  O         2.1875100425        6.5640223187        9.0703885553
  O        14.0636734041        8.0655042157       11.3789993290
  O        14.2620991361        5.3072011049        9.5260765540
  O         8.7774538620        6.6857707253        9.3498790697
  O        13.6917082962       -1.0714142566       13.2884973827
  O        16.1718234831        6.3492298496       11.3510152574
  O        -5.0715254765        2.6041493389        9.2647492412
  O         2.5416317257        9.1243916740        9.5172752177
  O         6.6030110732        1.0071427049       11.5622187633
  O        12.6755943896        3.3011355222       10.5646222160
  O         9.1758057993        0.8444056375       11.0519239140
  O         5.3791134098        8.4991582959       11.8037935401
  O         9.2037588172        9.0278916225       10.7622345587
  O         1.9811173970       11.0102740501       11.3421873802
  O         2.7638835989        1.1947340865       11.7931915544
  O         1.4012608618        2.3249634120        9.5250668850
  O        11.7946980364        6.8810624320       11.1797271680
  O        13.0695744894       12.1758111327       10.7664306764
  O         3.9971021492        4.3504785146       13.1812710738
  O         6.7225744935        3.8392685335       12.3351772668
  O         3.3964106960        6.9177145205       12.3650624110
  O         6.7431924158       11.7697445767       12.3989805185
  O        14.2156308065        7.9715061641       14.0733797934
  O        11.3404646546       10.4538356621        9.6541485128
  O         2.7050145503        1.0106696892       14.4861040016
  O        -0.3550469064        1.4121493412       11.8895518162
  O        12.4664128570        2.9957334225       13.0884217055
  O        10.2382566594        1.1589745910       13.5542428737
  O         1.1517712871        4.0547198629       12.9344699093
  O         0.3327304073       10.6614065102       13.6348958100
  O         4.2923481846       10.8011380410       12.7849117449
  O         8.1492649490        2.5427185082       14.5937063439
  O        11.3465551232        5.2894761175       13.4450882696
  O         7.8601925450        8.3196433432       13.0174986306
  O         8.6083655355        5.6829446724       13.3010328201
  O        13.8939310024        3.1947275035       15.6197005594
  O         2.9039318865        8.0803214640       14.6608928778
  O        11.6628601419       12.4079168144       15.2987380359
  O         4.2596148115        4.9430169517       16.0794917430
  O        -1.1077523765        9.8902901104       20.1010957066
  O         0.9601800450        1.7808774214       16.5177431054
  O         5.6117347069        1.2354797107       15.3002702956
  O        -0.3899055583        5.4933720256       14.7696830323
  O         5.1159205167        2.8786915950       17.6415632543
  O         7.6617882397        9.8706720621       15.1535750866
  O        11.7053164525        7.6149196170       14.6359552922
  O         2.7085695249       11.3958034336       14.6779584819
  O         1.4256939516        6.3923460181       16.3704001134
  O        -0.4797163405       13.0714838735       17.2164924495
  O        12.3152030948       13.4618154117       17.6446722953
  O         0.6634143440       11.3913959472       18.9112644500
  O         2.6667079425        2.5267308573       18.7153025599
  O         6.3737615420        6.1437442340       17.2878834185
  O        12.2728450796        2.8433455069       18.4085764719
  O         5.9750359845       11.7506278547       16.6028253707
  O        10.6047298732        9.7930486095       15.8484937907
  O        11.1579273553       11.6424093640       19.7162483952
  O        10.0097833524        4.9280512573       18.2284614331
  O         8.5526828096        5.0059593962       15.8971438956
  O         1.9567059584       13.6384006642       20.2199805769
  O         7.3653180320        4.1400192337       19.2332123006
  O        12.2868105822        6.4127771171       17.3374004778
  O         2.2769694805        7.3601435738       18.7996565470
  O         5.4827247343        8.6595243740       19.3882745712
  O        13.9926895471        3.6454339737       20.6572185208
  O        -0.8316904265        5.1041802500       18.0417472134
  O         4.2704579096       12.4135105450       20.8062784154
  O         2.3169458385        4.8754259557       19.8887920867
  O        11.0173157360        9.0509898577       18.6493688904
  O        -0.1995405745        1.1886114325       21.5982318520
  O         5.9581527445        3.9440878485       21.7460132191
  O         8.8181701156        4.3731840067       23.2224636726
  O         0.7839103913        8.0959487954       21.1264667161
  O         9.9058597095        6.9986994256       20.1738682583
  O         7.5831456019        8.1947961613       20.9390058727
  O        -1.7711486584        6.9552409610       20.9829568580
  O         2.9227174335       11.3863729119       17.5653135463
  O        -1.6512199877        5.0390317720       23.2717813500
  O         5.0764671255       14.1900048949       22.9105274425
  O        13.3411682438       12.4908378629       21.6550970047
  O         2.3862525021        8.4913834619       23.3631878094
  O        11.2687041616        6.4906679193       22.7485373014
  O         4.2032701289        5.8875725040       22.8795085348
  O         8.4635418494       11.2428145305       20.2433443697
  O         1.2491533004        2.2551743118       23.6567678342
  O        16.7631095756        4.8407058153       23.1006629626
  O         1.1435979151       10.9159057289       23.7210011594
  O        12.1123007756        9.0846338813       22.7449604960
  O        11.3268261296       13.5844448974       23.2797688652
  O        11.8860850794        2.8917545620       22.9790602092
  O         7.2648351860       12.3599132177       23.3538424355
  O         6.0682170152       11.2914629382       19.2148255360
  O         4.1985391275       10.5280313393       23.0730787567
  O        10.0743587163        3.5303606623       20.9931014283
  O        10.0487376324       11.2047697595       22.8069878122
  O         7.3505148948        6.6270909337       23.0111005640
  O         2.6518538730       13.4413822944       24.0289179658
  O        -1.5564800831       11.0333850575       23.9625567193
  H         3.7931090883       -0.2021107005        8.5447252598
  H         5.6416927985        9.6921820157        8.7797938454
  H         1.8466723579        6.1741402661        8.2351611283
  H        14.5433026255       -3.5561820062        8.5213007961
  H        14.2691549815        5.2094936644        8.5674581295
  H         3.5461818374        4.0538937157        9.5142842019
  H         0.6265277537        9.6339150078        9.2644577181
  H         4.9914928316        1.9104361037        9.2949220794
  H         4.6949325270        6.1087562087        9.8093671537
  H         7.4128252923        2.0166692225        9.1320586501
  H        11.7793271523        5.8240710324        8.8380469547
  H        10.1558708212        6.0174896620        8.6125669426
  H         6.9673449413        7.3772539278        9.8184786787
  H         8.5624079249        4.1701635174        9.0072504226
  H        -1.8530554001        1.1182286887        8.1822058280
  H         4.2844270535       11.8448587754        9.2466315004
  H         1.5695298082        6.3574521989        9.7801038117
  H        -1.0922927635        8.8025340763       10.7421011614
  H        15.4648520825        7.0165813289       11.4432795687
  H        -4.1449993188        2.8951965763        9.6354429876
  H        14.5328993916        6.2426519833        9.6061818813
  H         5.2421650433        9.5618207224       10.3045094311
  H        10.4257137624        2.4240544508        8.2965247737
  H         6.3999759708        0.2791386468       12.1875458732
  H        -2.1135318617        2.0938355146        9.4962674628
  H         3.2218041540        9.3452396587        8.8123025635
  H        13.1423068154       -1.1283256316       12.3660912547
  H        13.1919578679        4.1119963482       10.4219004243
  H        13.1253756061        7.7869148790       11.1424244425
  H        12.9971241152       -1.3081626830       14.0328136301
  H         8.2564460773        1.0758678770       11.3121858859
  H         8.7715485976        8.8598041906       11.7676706159
  H         9.3401254349        1.6147701016       10.4573271636
  H         1.8748384860        2.6191907422        8.7840467577
  H        11.6547478976        6.3332211105       12.0501331163
  H        10.9405439630        7.3563362426       11.1407234813
  H         5.8530730133        1.6163611329       11.6326235715
  H         2.0840188448       10.2011242406       10.7649141776
  H         2.4241311937        8.0771931374        9.4387817651
  H         4.9071948080        4.2434750728       12.7757176650
  H        16.0199082061        5.5518773496       11.9152683298
  H        12.5216124744       -1.7965610912       10.2935558961
  H         4.8494069689        7.6553015030       11.8756807689
  H         1.3791123731       -2.6212338797       12.0227444344
  H         5.0802625112        9.0767737634       12.5132774176
  H         8.8762778518        8.2332742348       10.2867758764
  H         3.3560495044        0.6723306559       11.2246919127
  H         2.2290100449        1.7081414495       11.1428873483
  H         5.8918911932       -1.9002631840       12.6563016226
  H        12.6811837913        3.1164794499       11.5512773396
  H         2.5359847993        6.9256346327       11.8979379099
  H         7.2468070673        4.6498172925       12.3451467993
  H         3.6114851300        6.0103330490       12.6462510692
  H        -1.0610787440        1.0161274670       12.3836399187
  H        12.8904571172       13.0220705156       10.3172934493
  H        11.0068816129       10.3270114271        8.7343665039
  H         2.6063728021        0.0165012407       14.5812742711
  H         2.5826246028        1.1596315347       13.4745850300
  H         0.5377545892        2.6953192673        9.3143074862
  H         9.8985078337        1.0460256609       12.6259494079
  H         4.1051119153        4.5290758070       14.1452443953
  H        14.2073238006        7.9792420115       13.1218886865
  H         7.2496115712        3.3657500996       13.0528045092
  H         0.0517761020        2.1325918692       12.3613148583
  H         7.3852963537       11.2639873430       12.9548649247
  H        10.3689607334        5.4056263827       13.1600355221
  H        14.7302762555       11.0318610638       13.4821568705
  H         7.7802883223        9.0484298746       13.7972249213
  H         0.2056067461        9.6904401010       13.7763290426
  H        -0.8465094838        6.9626603980       14.2048662352
  H         2.1775623895        3.9759943963       13.0535402732
  H        11.8095490755        2.3316813200       13.3539805678
  H        10.6936645317        9.8686179418       10.1015436492
  H         3.5696747818       10.8906673853       12.0538825169
  H        12.0469749257        3.8752480359       13.4352487050
  H         2.9639945394        7.6689781739       13.8114890927
  H         5.0329111757        5.5253508375       16.4585090522
  H        14.7329835924        2.7144443643       15.8941620013
  H         8.9810672376        1.9035371254       14.3419989763
  H        10.6426264077        0.3474754425       13.9158273618
  H         8.3999049551        6.6612529587       13.3609711204
  H        13.5521034056        2.7204449682       14.8455508415
  H         8.5548491916        5.4265724482       14.3031149765
  H         6.9879124095        8.3643248973       12.5445387282
  H         0.8928276908        4.4492333389       13.8170811108
  H         3.7840192349       11.0149055505       13.6289864943
  H         1.5075376248        1.5574904262       15.7128298556
  H         3.4295069916        5.4318735925       16.1926997808
  H         7.4814650863        1.9149231504       14.9389942265
  H        11.5645809362        6.1362579835       13.9085909939
  H         4.7307596751       14.8089859798       14.9710221529
  H        -1.6515945177       10.4313275614       20.6758461466
  H         3.0950273321        9.0167214192       14.4945841612
  H        11.2595731499       11.5331044009       15.4703395029
  H         7.3320942107       10.6615611936       15.6705896275
  H        -0.4559227849       12.6162023131       16.3522075249
  H        11.7980387260       12.7551779191       16.2029203928
  H        14.3745590405        4.8338050575       15.2170436553
  H         4.7407393630        3.6576677270       17.0536364073
  H        12.5993805861        7.9029950522       14.2200324850
  H        -0.5093829478        9.3358030052       20.6847875010
  H         0.4345319783        0.9550839198       16.7079030439
  H         1.6934583615        7.0774066298       15.7353755403
  H         0.1109070125        5.8536478195       15.5583816501
  H         5.4383722703       13.6714870157       15.7680026996
  H         6.6043381083        5.4700491337       18.0120629547
  H        12.6339739035        3.0980869585       17.5519515795
  H         1.7517155797       11.2495292307       14.3747314994
  H         5.3813443824        2.0958131106       17.0288665800
  H         8.6675862375        9.9809221488       15.3729111690
  H         2.0251441743        2.4221931259       17.9581085074
  H        13.2643297057       13.3310197687       17.4272314853
  H        11.1877689066        9.0260355402       15.4132272534
  H         3.5801608457        2.5636055291       18.2834529093
  H         2.7810770037       11.4088645033       15.6773957758
  H        11.9634046354        7.0217285040       15.4329058410
  H        12.2501873057        1.0713708696       18.0540291113
  H        -0.0340944120       12.4291082130       17.8544284852
  H        -0.0180217605       10.7993461820       19.3960221535
  H         1.6991159141        6.7427517271       17.1692448439
  H         5.2733918033       11.0640891826       16.4439230926
  H         7.1986269040        5.9152245931       16.6567259121
  H         2.2071124906       14.4386546430       19.6787216102
  H        11.5559738881       12.3760371505       19.1821957082
  H        11.5821393348       11.7118468594       20.6055526993
  H         7.1323733382        3.3508110662       18.6788218203
  H        10.7205519403        4.2341747840       18.4279649038
  H         8.4346764784        4.0882151674       15.8774297176
  H        10.5960709856        9.6277285558       16.7896041015
  H         0.8408766479       11.9991356281       19.6699436435
  H        12.9126269042        3.2134557453       19.0946267846
  H         9.2242170131        5.0649144261       16.6411822117
  H         8.3410931791        4.2509041680       19.1161138373
  H         5.9843443381       11.5361298089       17.6059611754
  H         5.6307123104        8.1059851407       18.5212267615
  H        11.4798895171        5.9801089157       17.5813386117
  H         2.2996919524        3.9929813701       19.4083543953
  H         2.7525017767       13.1225228760       20.3373081776
  H         6.2444401519        8.3429323929       19.9463697265
  H         9.9716065071        5.6852407312       18.9478148218
  H        11.3124381215        9.8904171261       19.0528033237
  H        -1.7727446251        5.3228717689       17.8759541514
  H         3.1393634512        7.7527201160       19.0126937176
  H        -1.1414102844        4.5147445127       20.2806566917
  H        12.2612435120        7.2745082196       17.8451035808
  H         6.0866734353        4.1473919123       20.8226511042
  H         0.6133233973        0.7757477675       21.1339603486
  H         2.3588124792        6.3989360255       19.0681602410
  H         1.3875184192        7.8368645368       20.4073768816
  H         4.9822577254       12.0160439197       20.2399073709
  H        -0.3179616692        2.0527132601       21.1029983098
  H        -0.2002884783        5.5314804674       17.4709307975
  H        13.7798844080        3.8638669925       21.5860099596
  H         9.3200576269        4.0463432822       22.4444687002
  H         4.7211159490       13.0638480657       21.4175988875
  H         1.4387178792        4.8609530177       20.2904129138
  H         6.8126363035        4.0131429264       22.1227307239
  H        10.4357731150        8.6498975599       19.3206063697
  H         3.0364364084       12.2368103914       17.9881051452
  H        -2.1329618127        7.8833229056       20.9813818830
  H         7.3861948843        7.8286333231       21.8433457095
  H         2.0349510267       11.1142305669       17.9247198130
  H         9.0072082613        7.3014868914       20.4834447017
  H         5.4085291408        1.7232116657       23.3251195588
  H        -1.3524748911       13.2750416486       21.4356230369
  H        14.5600120989        7.0652679944       20.9038234879
  H        10.2764574297        6.6144379226       21.0529763264
  H         9.2966440310       11.3015853657       19.6841795749
  H         1.4889060546        8.1314610374       21.8115666106
  H        10.7537577934        5.8730623157       23.3380401157
  H         9.0337264955        3.8174242082       24.0499079203
  H         4.5108176019        4.9982796314       22.5099095696
  H         7.7734593305        9.1789780980       20.9529897592
  H        -1.6592773871        4.9120876679       24.2328220280
  H         0.5309506663        2.0855694032       22.9490598635
  H         5.8576827334        0.2964239117       23.2303944370
  H        -1.5240338759        6.0368369319       23.2364165061
  H         8.7078720948       11.4559881064       21.1194961102
  H        13.6616402367       12.1433283148       22.5410701395
  H         2.6372357309        7.9741759675       24.1480596465
  H        12.1494308235        6.0628679045       22.6141461420
  H         3.2124703010        9.0104121731       23.1086528488
  H        11.8929866760        8.1894306509       23.0415003408
  H        15.8090141273        5.1136420254       23.0939361718
  H         5.9072041024       10.2843555292       19.1346111776
  H         4.3205831642        5.8114040184       23.8480787989
  H         7.5024590911       11.7832568451       24.0852199165
  H        12.1620065372       13.5106897733       22.7214165108
  H        17.3346375667        5.5855129283       23.0750784221
  H        11.9708338243        3.3676177849       23.8504380414
  H         1.7114837456       10.1136199278       23.7583823073
  H         1.4400247716        3.2266456374       23.6603909622
  H         4.0749754398       11.1999618423       22.4144308989
  H        10.5808534135       11.8648926911       23.2447171612
  H        11.2794499493        9.5628144267       22.7829999984
  H         1.7257963503       11.7386479026       23.6922534026
  H        10.8984114449        3.4033147333       21.6018311425
  H         7.9116044803        5.8203817746       23.0259140443
  H         6.4135760479        6.2566883516       23.1517786252
  H         9.3915225965       11.0454759730       23.5551446506
  H         2.1477239123       14.3658531992       23.8376022508
  H        11.4818582410        0.1864365793       24.2709454320
  H         3.5585855388       13.5714432619       23.7336035624
  H        13.1536519361       10.3041990039       23.6408359782
  H        11.6078196106        1.9498926767       23.2616023524
  H        -0.5713511862       10.7873999308       23.8098830291
  H         7.9384436247       13.0336476043       23.4421398727
  H         6.9782919369       11.2814782471       19.5421386401
  H         5.0128313321       10.7482764654       23.6076174804
  H         9.7448741813        2.6318462492       20.7977498015
  C         5.4016670806        2.9104210441        9.2837549126
  C         4.6801173420        4.0502352373        9.3975272605
  C         5.3472984983        5.3020917966        9.4495914887
  C         6.7772728538        2.9141859951        9.1227075823
  C         6.7441847353        5.3170842013        9.3212703898
  C         7.5028425611        4.0869769828        9.0342771024
  C         7.5564020503        6.5794728255        9.4673653441
  K         0.6034921667       -0.3715239718        9.6608578230
  K         7.8390509645       11.5673633461       10.0175359017
