      466
4000
 Cu         0.0000000000        0.0000000000        0.0000000000
 Cu         0.0000000000        4.4270557290        0.0000000000
 Cu         0.0000000000        8.8542442710        0.0000000000
 Cu         1.2779405470        2.2135942710        0.0000000000
 Cu         1.2779405470        6.6406500000        0.0000000000
 Cu         1.2779405470       11.0677057290        0.0000000000
 Cu         2.5560344530        0.0000000000        0.0000000000
 Cu         2.5560344530        4.4270557290        0.0000000000
 Cu         2.5560344530        8.8542442710        0.0000000000
 Cu         3.8339750000        2.2135942710        0.0000000000
 Cu         3.8339750000        6.6406500000        0.0000000000
 Cu         3.8339750000       11.0677057290        0.0000000000
 Cu         5.1119155470        0.0000000000        0.0000000000
 Cu         5.1119155470        4.4270557290        0.0000000000
 Cu         5.1119155470        8.8542442710        0.0000000000
 Cu         6.3900094530        2.2135942710        0.0000000000
 Cu         6.3900094530        6.6406500000        0.0000000000
 Cu         6.3900094530       11.0677057290        0.0000000000
 Cu         7.6679500000        0.0000000000        0.0000000000
 Cu         7.6679500000        4.4270557290        0.0000000000
 Cu         7.6679500000        8.8542442710        0.0000000000
 Cu         8.9458905470        2.2135942710        0.0000000000
 Cu         8.9458905470        6.6406500000        0.0000000000
 Cu         8.9458905470       11.0677057290        0.0000000000
 Cu        10.2239844530        0.0000000000        0.0000000000
 Cu        10.2239844530        4.4270557290        0.0000000000
 Cu        10.2239844530        8.8542442710        0.0000000000
 Cu        11.5019250000        2.2135942710        0.0000000000
 Cu        11.5019250000        6.6406500000        0.0000000000
 Cu        11.5019250000       11.0677057290        0.0000000000
 Cu        12.7798655470        0.0000000000        0.0000000000
 Cu        12.7798655470        4.4270557290        0.0000000000
 Cu        12.7798655470        8.8542442710        0.0000000000
 Cu        14.0579594530        2.2135942710        0.0000000000
 Cu        14.0579594530        6.6406500000        0.0000000000
 Cu        14.0579594530       11.0677057290        0.0000000000
 Cu         0.0000000000        2.9513704860        2.0869457760
 Cu         0.0000000000        7.3785590280        2.0869457760
 Cu         0.0000000000       11.8056147570        2.0869457760
 Cu         1.2779405470        0.7379090280        2.0869457760
 Cu         1.2779405470        5.1649647570        2.0869457760
 Cu         1.2779405470        9.5920204860        2.0869457760
 Cu         2.5560344530        2.9513704860        2.0869457760
 Cu         2.5560344530        7.3785590280        2.0869457760
 Cu         2.5560344530       11.8056147570        2.0869457760
 Cu         3.8339750000        0.7379090280        2.0869457760
 Cu         3.8339750000        5.1649647570        2.0869457760
 Cu         3.8339750000        9.5920204860        2.0869457760
 Cu         5.1119155470        2.9513704860        2.0869457760
 Cu         5.1119155470        7.3785590280        2.0869457760
 Cu         5.1119155470       11.8056147570        2.0869457760
 Cu         6.3900094530        0.7379090280        2.0869457760
 Cu         6.3900094530        5.1649647570        2.0869457760
 Cu         6.3900094530        9.5920204860        2.0869457760
 Cu         7.6679500000        2.9513704860        2.0869457760
 Cu         7.6679500000        7.3785590280        2.0869457760
 Cu         7.6679500000       11.8056147570        2.0869457760
 Cu         8.9458905470        0.7379090280        2.0869457760
 Cu         8.9458905470        5.1649647570        2.0869457760
 Cu         8.9458905470        9.5920204860        2.0869457760
 Cu        10.2239844530        2.9513704860        2.0869457760
 Cu        10.2239844530        7.3785590280        2.0869457760
 Cu        10.2239844530       11.8056147570        2.0869457760
 Cu        11.5019250000        0.7379090280        2.0869457760
 Cu        11.5019250000        5.1649647570        2.0869457760
 Cu        11.5019250000        9.5920204860        2.0869457760
 Cu        12.7798655470        2.9513704860        2.0869457760
 Cu        12.7798655470        7.3785590280        2.0869457760
 Cu        12.7798655470       11.8056147570        2.0869457760
 Cu        14.0579594530        0.7379090280        2.0869457760
 Cu        14.0579594530        5.1649647570        2.0869457760
 Cu        14.0579594530        9.5920204860        2.0869457760
 Cu         3.8936716039       12.6375689939        4.1199894857
 Cu        11.5670174741       12.5782589881        4.1258297348
 Cu         2.5564471674        1.4905770696        4.1312865307
 Cu         5.1726239038        1.4405772079        4.0421244978
 Cu         2.5426661697        5.9746640686        4.0735797989
 Cu         3.7761687635        3.7665804446        4.0943816239
 Cu         6.5721008971       12.5657897113        4.1694908707
 Cu         1.2549992042        3.7909201753        4.1826392540
 Cu        12.7767794678        1.5168819166        4.1690842356
 Cu        14.0657348954        3.6378754615        4.1580323003
 Cu        10.3538559415        1.5131262647        4.0830688795
 Cu         8.8458708345        8.1444061464        4.1704094685
 Cu        12.7503694895        5.8696194388        4.1675888419
 Cu        -0.0331454345        5.9653242341        4.1024500242
 Cu        10.2943870335       10.3524882048        4.1221281434
 Cu         9.0363783313       12.6192851875        4.1394114022
 Cu         5.1152675032       10.4748426814        4.2151597425
 Cu         1.2637396120        8.1834919165        4.1290614764
 Cu         5.1628385681        5.8855653557        4.1995929749
 Cu        10.2407245662        6.0323677157        4.0814953254
 Cu         2.6106113331       10.3411574363        4.1199557184
 Cu         7.7054799210       10.4007361168        4.1913193737
 Cu         3.8323306227        8.1097322326        4.0867802891
 Cu         7.7526656926        1.4433485781        4.1694185764
 Cu         6.3698291088        8.1583951537        4.1998596359
 Cu        -0.0112540372       10.3348699015        4.1622324211
 Cu         6.3056014263        3.7189323110        4.2428440275
 Cu         1.3435217573       12.5258558825        4.0499604239
 Cu        12.7963807132       10.3975673521        4.1622066436
 Cu        11.5239723162        3.6839935775        4.1459176361
 Cu        14.0305462840       12.4940871114        4.2895916429
 Cu         9.0618448995        3.6433798593        4.0937359120
 Cu         0.0557832611        1.4787383844        4.1811265457
 Cu        14.0340234933        8.1303547317        4.1420590937
 Cu        11.5301150483        8.1820399501        4.1360742964
 Cu         7.6451336472        5.9541083879        4.1530135785
 Cu         2.5988387864        0.0746615256        6.1826776856
 Cu         5.2558294639       -0.0024515521        6.2670315480
 Cu        12.8672640826       -0.1091563116        6.3780432204
 Cu         1.3318358356        2.2914755342        6.2584736104
 Cu         4.9099470550        4.4157476198        6.3236278972
 Cu         3.8794526897        2.2100761292        6.0567624564
 Cu         8.8957308322        6.8534860994        6.2750734888
 Cu        14.0289918310       11.0802988678        6.4025514388
 Cu        10.2248996224        0.0514040383        6.2452788586
 Cu        11.3744745708       11.0811814502        6.2232752928
 Cu        14.1495716095        2.1792778502        6.2037487143
 Cu         6.4429693437        2.1507329157        6.1733191525
 Cu         1.2503835744       11.0477371497        6.2076289809
 Cu         3.8581230199       11.2279751119        6.1955378311
 Cu         6.4262234256        6.7225494091        6.1353974006
 Cu         3.8951818903        6.7551688549        6.2228586847
 Cu         1.3239091774        6.7729400827        6.2042538201
 Cu         0.0868884390        8.9668373771        6.4061270505
 Cu         7.6118847240        8.9972369452        6.2998793162
 Cu         9.0280072967        2.3914883973        6.2283870343
 Cu        10.2718758194        4.4703497413        6.1229034454
 Cu         2.4814723290        4.5030722362        6.3308649312
 Cu        10.2500789055        8.8832003744        6.3067632566
 Cu        11.5744329904        6.7672699779        6.1171492621
 Cu         0.0195244199        4.5413021522        6.1103892875
 Cu        14.0593036967        6.7420824398        6.3246024672
 Cu         5.1347485601        8.8849505463        6.3029533308
 Cu         8.9572118420       11.0209223536        6.1171943595
 Cu         7.8048130653        0.0055151023        6.3714458996
 Cu         6.3744490971       11.1353982028        6.3484088541
 Cu        11.6239385949        2.2736852844        6.1762698654
 Cu        12.7757621032        4.4260749659        6.3126519318
 Cu         7.7370360892        4.4891595602        6.2119896702
 Cu         2.6359101237        8.9562698179        6.1093914878
 Cu        12.8118903011        8.9474587332        6.1397469667
 Cu         0.1060528232       -0.0371694535        6.2300626232
  O        14.7937455951       -3.6452206043       10.1880335286
  O        12.0885858883        6.5931550214        9.4843586906
  O         6.4080189732       -0.4064879894        9.6586269943
  O        -0.7283613257        0.5325618964        9.2604079470
  O         6.3563039696        9.9558356229        9.5391001141
  O         2.8405574473        6.9827379110        9.1846928983
  O        14.5410289551        7.4246915399       12.2759408627
  O        13.4660811214        4.4620094676        8.6623180054
  O         9.2360926399        6.5097617818        9.4529367943
  O        14.4137764985       -0.5198884948       13.7023365733
  O        16.7021302105        5.6299968129       10.9554339088
  O        -5.1149422532        1.8798532937        9.3401450665
  O         2.7363317378        9.6815947959        9.3237763030
  O         7.3421285229        0.6257465341       12.0437138554
  O        12.9084636369        2.3359702897       10.2944660369
  O         9.9900662496       -0.1104235786       11.3272985035
  O         5.4418210687        8.2208368161       11.4206936748
  O         9.7778307410        8.3068399756       11.8171810720
  O         1.3649176265       10.4755235454       11.9702433525
  O         4.0006178413       -0.8975526439       11.3634219234
  O         2.4622326566        1.6637633244        9.2700298389
  O        11.7879978187        6.6387476801       12.2639520102
  O        13.4127056501       11.9283626267       10.9227353850
  O         4.1694015069        4.0555656066       13.5013839469
  O         6.3526773114        2.4802389043       13.9967544590
  O         3.4839117432        6.4799016105       12.5496542801
  O         7.2314122158       11.1056123189       12.4147005803
  O        15.0853429005        7.4787760345       14.8552166015
  O        11.6813489655        9.7186765077        9.5598015749
  O         3.3218097133       -0.1568493343       14.7042565896
  O         1.4719838567        0.4687287577       12.3073779202
  O        12.4548107705        2.4251252108       13.1659787853
  O        11.0077041950        0.2485867034       13.9060667645
  O         1.8915814696        3.2314916313       12.5750436176
  O         0.1311447301       10.1769913686       15.2448138972
  O         4.4263837241       10.2049060987       13.0385601509
  O         9.7359565363        1.2844997228       16.0076210105
  O        11.1120785382        4.6422955755       14.3185126875
  O         7.7103157099        7.4660081491       13.6078702303
  O         8.4443538975        4.8218462249       14.2308841118
  O        13.9601131836        2.3571341605       15.2599810487
  O         2.3827173106        7.2308495087       15.0350115463
  O        12.4008320804       11.7357252738       15.3833321109
  O         4.1701946177        4.0225413311       15.9767363065
  O         0.9986138079        9.0938517416       21.8719443779
  O         1.1934052708        1.0947527762       16.1769518518
  O         7.1078008711       -0.0897233497       14.8991610802
  O        -0.3706606923        4.6372077145       13.8675174290
  O         5.4475816355        1.3966592932       16.6998648328
  O         8.3900707894        9.7086551419       14.9625501860
  O        12.5843817494        6.8257498386       15.6568714649
  O         2.6512187555        9.9562426326       15.4904788417
  O         2.5162433471        5.6114707372       17.2699479774
  O        -0.0484716321       11.9167650706       17.3422600483
  O        12.8294003455       12.6764811918       17.6838901841
  O         1.1469860259       10.6150544927       19.7437047360
  O         3.1945078765        1.1503785564       17.9361629669
  O         6.2074061821        4.1633187938       17.6831123201
  O        12.8098184637        2.0834600593       17.8990089715
  O         5.8693342826       10.7977198648       15.8593653021
  O        10.8992436048        9.0446160635       15.9004328173
  O        11.6322908933       11.2593572635       19.9109001281
  O        10.9630957331        3.7918693014       18.5175997621
  O         8.9351927298        3.8377929231       16.9076185956
  O         2.0462723351       13.2293124385       19.9691016625
  O         6.6557530571        0.7352381221       19.3166130721
  O        12.5566683614        5.8990053067       18.2001778137
  O         3.6702639295        6.0437845381       19.6839404496
  O         6.0728152760        6.9121214968       19.2337995172
  O        14.3046133670        3.3723149698       20.4765612892
  O         0.0545131166        6.2468212825       19.0709167035
  O         4.6379238854       12.5212962221       20.4608113858
  O         4.0989977945        2.9584806457       19.7199198719
  O        11.8283114250        8.0023664903       20.2769685156
  O        -0.3441660099        0.4379316882       20.8823174186
  O         6.1726783876        4.5590420832       22.0980687242
  O         8.7484426374        4.6134442790       22.9633802556
  O         2.3532438226        6.2969561784       22.3095155526
  O         9.4353697588        6.8212394740       20.6080433059
  O         7.3162237133        9.5416948447       19.3431784399
  O        -1.2388560255        7.2924998412       21.1364443612
  O         3.0367621915        9.3636705777       18.1252782256
  O        -2.2070415268        5.4776320718       22.7274969557
  O         4.6811593572       15.5733575018       22.9875528582
  O        12.8860876971       12.1729943686       22.3506464544
  O         3.6138829959        9.0001908901       22.9395754377
  O        10.9101265499        4.6873376843       21.0628965163
  O         5.6449417746        7.0103586392       23.2172597903
  O         9.0098846015       11.7978493846       19.5298873546
  O         0.0143751682        0.7630314351       23.8987164832
  O        17.3954204555        3.5356752514       23.0279710925
  O         1.4367511335       11.5818061529       23.9478269416
  O        12.8265493540        8.4973524615       23.6667014749
  O        10.3622858830       11.4093614342       23.1950595244
  O        12.5880802859        1.8237407840       23.1115919164
  O         8.4499119602       13.0462174927       22.2123516070
  O         5.2854741366       10.8126352422       18.3826506981
  O         6.0213578694       11.8084305199       22.7765015126
  O         9.4678719627        2.0368406858       23.1608943835
  O        10.2139271370        8.7621908830       23.1008234849
  O         7.1792502937        9.0718380576       22.2087797175
  O         2.9100585003       13.4177947636       22.9693996691
  O        -1.0644017685       10.6801537025       23.9828702121
  H         5.9092382128       -0.0058651499        8.9601164063
  H         6.0507241102        9.7911544188        8.6079301122
  H         2.6816829373        6.7940681759        8.2436160074
  H        13.9280558680       -3.0750074340       10.2881433755
  H        14.3251832362        4.6740044206        8.1525416310
  H         3.9287317870        4.4361737860        9.3570017181
  H        -0.4923687918        9.2528719863        9.2854900692
  H         4.7327593935        2.1542410052        9.1775341178
  H         5.3670191917        6.3290404260        9.2530491628
  H         7.3142038254        1.8363566338        8.7929362988
  H        11.9301834661        6.5326052117       10.5302599889
  H        11.1454579151        6.4149566779        9.2776956866
  H         7.3854150417        7.4421243958        9.3060752011
  H         8.8389113683        3.7991010886        8.8679985599
  H        -0.8206526477        0.6555439374        8.2945465097
  H         6.3763894669       11.8848271112        9.4839901359
  H         2.0993946192        6.4859414727        9.5304525424
  H        -1.0231763294        8.2138720909       11.6281404006
  H        15.9812361602        6.2180995530       11.1974136549
  H        -4.1986173983        2.1615770346        9.7255544525
  H        13.2117817700        5.3733136834        8.9982697010
  H         5.8827872500        9.1790888751       10.0906770085
  H        10.3235303275        1.8824304433        8.3612184619
  H         7.3225929957       -0.2753759445       12.4717369057
  H        -1.1480540679        1.3078045949        9.7514540358
  H         2.7550931893        9.8212844360        8.3229418982
  H        14.0683628815       -0.8638766933       12.8541829480
  H        13.0434118348        3.1826097540        9.7777566867
  H        13.6845802021        7.0580762064       12.4775822382
  H        13.7231427168       -0.7008725852       14.3909001547
  H         9.0639885691        0.1500441288       11.5448978946
  H         8.8601591498        8.3838180649       12.1009298275
  H        10.2517017498        0.5124933812       10.5783584466
  H         2.3962830933        1.8370941499        8.3154040454
  H        11.4931660997        5.9749073273       12.9357080582
  H        11.2055989483        7.4787752656       12.3996885128
  H         7.0248553231        0.4361745509       11.1241111183
  H         2.2492870511       10.2715884512       11.6156338686
  H         2.6481293637        8.6718575430        9.3849944035
  H         4.9683630762        3.5651938643       13.2585840166
  H        16.5523575424        4.7131184406       11.2315086834
  H        12.4823910814       -1.2402173432       11.0633313516
  H         4.7986347939        7.5056492793       11.6129237250
  H         0.7871183819       -3.2978342822       11.3033645298
  H         5.0339444188        8.8466399734       12.0413484924
  H         9.7912212264        7.6549902906       11.0481419429
  H         4.8940368766       -0.7781094190       11.0295056124
  H         3.6625513106       -0.1009595612       11.7669937148
  H         6.3425180140       -2.5843547790       12.5017937900
  H        12.8567703467        2.5022194448       11.2697514974
  H         2.6666011570        6.3313033135       11.9441618668
  H         7.0599312389        3.2015517829       13.9393828501
  H         3.9185014824        5.6081996456       12.8597939994
  H         0.5599889161        0.3227542656       12.8174538803
  H        13.6259442945       12.6914657466       10.2978885880
  H        12.0347003709       10.0161832301        8.6903104474
  H         3.1670364196       -1.0257729958       15.0132266752
  H         2.8348918409        0.0621793845       13.8678331248
  H         1.6784076658        2.2216507351        9.6907085628
  H        10.6201703972       -0.0069439317       13.0293900813
  H         4.0525027150        3.9311314105       14.5106570250
  H        14.8376935229        7.4822070332       13.8852767078
  H         6.6326529008        1.8776751777       13.2991750909
  H         1.7088177690        1.4070376693       12.4788734165
  H         7.5501384546       10.7071886494       13.2814435670
  H        10.1566671591        4.6129280205       14.4113499442
  H        15.4497626570       10.8661934067       14.5744660515
  H         7.8874262254        8.2955423382       14.1641263362
  H        -0.2180220383        9.2984611679       14.8763483472
  H         0.7460778535        7.3536758580       14.9200015486
  H         2.7546642228        3.4626550492       13.0509598625
  H        11.8281061748        1.6538516335       13.3394763666
  H        11.9200828466        8.7607969488        9.4613335127
  H         4.1506624598       10.8935755813       12.3879250719
  H        12.0686296717        3.2027336730       13.6409362890
  H         2.8075378346        6.9169049352       14.1218373971
  H         5.0035231311        4.1977577356       16.5380226096
  H        14.7916845312        1.8492006464       15.3133626314
  H        10.1539028552        0.8100575328       15.2076102868
  H        11.5029912221       -0.4916194562       14.3799619834
  H         8.1087608957        5.7004533886       14.1217862523
  H        13.3143250108        2.1660156210       14.4903893613
  H         8.4692770683        4.5502741876       15.1615331213
  H         6.7992129926        7.5618806703       13.2710052259
  H         1.1929618631        3.4541514169       13.1761433564
  H         3.8304674316       10.1953595300       13.8656325753
  H         1.9607958694        0.7698552346       15.6247670639
  H         3.4545115076        4.4577831935       16.5087764973
  H         8.8261742860        0.8648356931       15.9620961433
  H        11.5345814145        5.1701641271       15.0900025016
  H         6.4550470127       13.6873631815       14.4100520436
  H         0.2244926434        8.4704906643       21.7895470915
  H         2.7092742786        8.1414759564       15.2330617593
  H        12.1256418884       10.8094832632       15.4640586663
  H         7.7200446377        9.6441313005       15.6685119766
  H        -0.1233361214       11.0807942949       16.7704709423
  H        12.5203297430       12.1070832824       16.3439006490
  H        14.3747376549        4.1046231719       14.4536501214
  H         5.2250854188        2.2581900447       16.2530941427
  H        13.5248336488        7.0657119796       15.6773713722
  H         1.7870438976        8.5880234862       22.1518175445
  H         0.6927257259        0.1820182444       16.4436483895
  H         2.7096744760        6.1382461328       16.4757476886
  H        -0.1013376796        5.4044103904       14.3859410723
  H         6.7577642995       12.2897207470       15.2881515408
  H         5.8322370255        3.4476000087       18.2606322863
  H        13.2357171337        2.2904992053       17.0099071671
  H         1.6592139242       10.0714534356       15.3993084783
  H         6.1276659559        0.9535392305       16.1156484020
  H         9.2525724000        9.3181981233       15.2668898521
  H         2.4345398448        1.2202219813       17.2933806056
  H        13.8553048851       12.4747165391       17.5822919512
  H        11.5540048188        8.2802585517       15.9124487562
  H         4.0152074720        0.9773026580       17.4089684200
  H         2.8039127171        9.8621403680       16.4829303947
  H        12.4608220974        6.4651890323       16.6660528202
  H        12.6820883854        0.3933840589       17.8373527160
  H         0.2805118146       11.5512062209       18.2072293578
  H         0.9567181556       10.1526207496       20.6303278490
  H         3.1904319072        5.8356663218       17.9815906088
  H         5.0230125713       11.0608361595       15.4234697660
  H         7.1868140203        3.9163607255       17.5632933167
  H         2.4595966437       13.5233919502       19.0901870010
  H        12.1906645046       11.7113690541       19.1631081000
  H        12.2577023810       11.3359477190       20.7103170559
  H         6.1969331438        1.1580879634       18.5203898161
  H        11.2636480421        2.9687505017       18.2681843109
  H         9.1708914269        2.9941501509       16.4321837125
  H        10.7983640071        9.3287114831       16.8341792380
  H         1.2118571638       11.6129200174       20.0177871969
  H        13.4740731739        2.3821095813       18.5327620767
  H         9.6163351399        3.8532797914       17.7105884094
  H         7.0632041236        0.0099083269       18.7926733270
  H         5.6575213688       10.8554711224       16.8056802374
  H         6.5442303786        6.4584465415       18.5483903726
  H        12.0382174038        5.0550699640       18.0865597726
  H         3.5712832291        2.3467547081       19.1349255779
  H         2.8933741113       13.1135101225       20.5429941792
  H         6.7353075519        7.6753726690       19.4055743292
  H        11.1171566290        4.0592070590       19.4985615786
  H        11.7861700080        8.9501219022       20.2055895710
  H        -0.6632206045        5.9714077281       18.4848184012
  H         4.4976522881        6.5561677362       19.5098957985
  H        -0.9286789643        4.3091522839       20.1727308760
  H        12.0027630127        6.3442728455       18.8925238129
  H         6.1885521685        4.8401502424       21.1903693009
  H         0.5475989985        0.0656360876       20.6198015460
  H         3.9509841634        5.1246109929       19.6900167576
  H         2.7111887479        6.3587684101       21.3556184801
  H         4.8603221473       11.7754075621       19.8838246601
  H        -0.2298575221        1.4209649313       20.7763907555
  H         0.8332688396        5.8495310879       18.5963229384
  H        13.4440655583        3.4296084249       20.9583515125
  H         8.8203044168        3.5802141007       23.0226513629
  H         5.2227093034       13.2219845923       20.1959256980
  H         3.7842742063        2.7123088090       20.5922962042
  H         7.1520488413        4.6212421468       22.4079108421
  H        10.8312938709        7.7286527625       20.4024681768
  H         2.8012215010        8.4129103921       18.0486063559
  H        -2.1170525141        7.4510387290       20.7682031607
  H         7.1406170827        9.5203201247       20.3115677426
  H         2.3303249194        9.8362263825       18.7208683919
  H         8.6665480338        7.3549004691       21.0020060092
  H         5.1952145330        2.9604613605       22.5752135163
  H        -1.9049837815       12.6172920964       21.7396049111
  H        14.7536392296        7.0868583870       20.3508724479
  H         9.6077429217        6.0510220070       21.1756097337
  H         9.9970477242       11.5941227898       19.6955549859
  H         3.0386442856        6.5284377971       22.8775022859
  H        10.0462212539        4.3395785753       21.4557326797
  H         9.0945011995        5.0633097194       23.7759654160
  H         5.6991996291        5.9632964238       23.1455625470
  H         7.9505113524       10.2992226723       19.2156877484
  H        -1.7216604667        5.0804996798       23.4643115859
  H        -0.1138834960        0.4183344919       22.9918939428
  H         5.1732820708        2.0514423132       23.7978316607
  H        -1.6102618753        5.9996176158       22.1178353830
  H         8.6718312724       12.1904794556       20.3910249328
  H        13.4874214984       11.5351355901       22.7571384608
  H         3.7515964468        8.9670433027       23.9292198068
  H        11.5967283567        4.7061336188       21.8168428043
  H         4.1308105909        8.1814999091       22.6956344875
  H        13.0001247733        7.5225283143       23.5745394833
  H        17.5362911253        4.4661713443       22.7471567611
  H         4.5694337420       10.1901437444       18.3519802631
  H         5.6387620467        7.2796175850       24.2035365593
  H         7.5235385645       12.8306994487       22.5080092627
  H        11.2884080462       11.7091135024       22.9404714936
  H        18.1183475307        3.3711482486       23.6654194390
  H        12.8250525982        2.4651341944       23.8643617734
  H         2.2113013654       11.0612677929       23.7023754298
  H         0.6428102495        1.4899363916       23.7079610757
  H         5.4333851965       11.8734728246       21.9598986304
  H        10.1540547374        9.7973195458       23.1134841248
  H        11.8301614798        8.5316819877       23.5798498388
  H         1.6741845918       12.4691117103       23.7083276594
  H        10.4468726372        1.8263510208       23.2531881991
  H         6.7844653833        9.9342165095       22.5297119009
  H         6.4449737517        8.3512781026       22.3630493827
  H         9.4491985864        8.5809277051       23.6404558933
  H         3.1558800089       14.3527054277       23.1599283347
  H        10.3545397589       -1.7104906686       24.2641589006
  H         3.4494629568       13.1176073942       22.2541219404
  H        13.9508234800        9.7387872559       23.8388068972
  H        13.1129392480        1.0515408921       23.2263857338
  H        -0.0826388591       10.7676708562       23.8434725879
  H         9.1417588869       12.4916909348       22.6114566112
  H         6.1178296814       10.3287619698       18.7730337958
  H         5.4376195166       11.7283925072       23.5909129047
  H         8.9948189389        1.4209640626       22.5354613684
  C         5.5186713092        2.9836860041        9.2266319844
  C         5.0036841193        4.2641260767        9.3271652666
  C         5.8528874573        5.3501322556        9.2947969010
  C         6.8791584155        2.7890260507        9.0740913598
  C         7.2199726499        5.1722892733        9.1727731038
  C         7.7644915284        3.8717408967        8.9836607777
  C         7.9988845331        6.3983108903        9.2446524145
  K         1.4004427827       -1.0414118817        9.5537921931
  K         9.1542369721       10.7452065220        9.7225700589
