      468
5000
 Cu         0.0000000000        0.0000000000        0.0000000000
 Cu         0.0000000000        4.4270557290        0.0000000000
 Cu         0.0000000000        8.8542442710        0.0000000000
 Cu         1.2779405470        2.2135942710        0.0000000000
 Cu         1.2779405470        6.6406500000        0.0000000000
 Cu         1.2779405470       11.0677057290        0.0000000000
 Cu         2.5560344530        0.0000000000        0.0000000000
 Cu         2.5560344530        4.4270557290        0.0000000000
 Cu         2.5560344530        8.8542442710        0.0000000000
 Cu         3.8339750000        2.2135942710        0.0000000000
 Cu         3.8339750000        6.6406500000        0.0000000000
 Cu         3.8339750000       11.0677057290        0.0000000000
 Cu         5.1119155470        0.0000000000        0.0000000000
 Cu         5.1119155470        4.4270557290        0.0000000000
 Cu         5.1119155470        8.8542442710        0.0000000000
 Cu         6.3900094530        2.2135942710        0.0000000000
 Cu         6.3900094530        6.6406500000        0.0000000000
 Cu         6.3900094530       11.0677057290        0.0000000000
 Cu         7.6679500000        0.0000000000        0.0000000000
 Cu         7.6679500000        4.4270557290        0.0000000000
 Cu         7.6679500000        8.8542442710        0.0000000000
 Cu         8.9458905470        2.2135942710        0.0000000000
 Cu         8.9458905470        6.6406500000        0.0000000000
 Cu         8.9458905470       11.0677057290        0.0000000000
 Cu        10.2239844530        0.0000000000        0.0000000000
 Cu        10.2239844530        4.4270557290        0.0000000000
 Cu        10.2239844530        8.8542442710        0.0000000000
 Cu        11.5019250000        2.2135942710        0.0000000000
 Cu        11.5019250000        6.6406500000        0.0000000000
 Cu        11.5019250000       11.0677057290        0.0000000000
 Cu        12.7798655470        0.0000000000        0.0000000000
 Cu        12.7798655470        4.4270557290        0.0000000000
 Cu        12.7798655470        8.8542442710        0.0000000000
 Cu        14.0579594530        2.2135942710        0.0000000000
 Cu        14.0579594530        6.6406500000        0.0000000000
 Cu        14.0579594530       11.0677057290        0.0000000000
 Cu         0.0000000000        2.9513704860        2.0869457760
 Cu         0.0000000000        7.3785590280        2.0869457760
 Cu         0.0000000000       11.8056147570        2.0869457760
 Cu         1.2779405470        0.7379090280        2.0869457760
 Cu         1.2779405470        5.1649647570        2.0869457760
 Cu         1.2779405470        9.5920204860        2.0869457760
 Cu         2.5560344530        2.9513704860        2.0869457760
 Cu         2.5560344530        7.3785590280        2.0869457760
 Cu         2.5560344530       11.8056147570        2.0869457760
 Cu         3.8339750000        0.7379090280        2.0869457760
 Cu         3.8339750000        5.1649647570        2.0869457760
 Cu         3.8339750000        9.5920204860        2.0869457760
 Cu         5.1119155470        2.9513704860        2.0869457760
 Cu         5.1119155470        7.3785590280        2.0869457760
 Cu         5.1119155470       11.8056147570        2.0869457760
 Cu         6.3900094530        0.7379090280        2.0869457760
 Cu         6.3900094530        5.1649647570        2.0869457760
 Cu         6.3900094530        9.5920204860        2.0869457760
 Cu         7.6679500000        2.9513704860        2.0869457760
 Cu         7.6679500000        7.3785590280        2.0869457760
 Cu         7.6679500000       11.8056147570        2.0869457760
 Cu         8.9458905470        0.7379090280        2.0869457760
 Cu         8.9458905470        5.1649647570        2.0869457760
 Cu         8.9458905470        9.5920204860        2.0869457760
 Cu        10.2239844530        2.9513704860        2.0869457760
 Cu        10.2239844530        7.3785590280        2.0869457760
 Cu        10.2239844530       11.8056147570        2.0869457760
 Cu        11.5019250000        0.7379090280        2.0869457760
 Cu        11.5019250000        5.1649647570        2.0869457760
 Cu        11.5019250000        9.5920204860        2.0869457760
 Cu        12.7798655470        2.9513704860        2.0869457760
 Cu        12.7798655470        7.3785590280        2.0869457760
 Cu        12.7798655470       11.8056147570        2.0869457760
 Cu        14.0579594530        0.7379090280        2.0869457760
 Cu        14.0579594530        5.1649647570        2.0869457760
 Cu        14.0579594530        9.5920204860        2.0869457760
 Cu         5.0580427245        1.4153606896        4.0611252058
 Cu         3.8615042446        3.7123359082        4.1060807283
 Cu         6.4062551181       12.5207687064        4.1009722070
 Cu         2.6258781940        5.8868415313        4.0719236655
 Cu         3.8367093875       12.5822945373        4.0988290191
 Cu        11.6128302936        3.7503238563        4.1179706123
 Cu         2.4715017248       10.4721041849        4.1227781581
 Cu         1.2946654227       12.6188856840        4.1317319208
 Cu         5.0579005036       10.3081300445        4.1908009419
 Cu        12.8181756309        5.9834292593        4.1466850641
 Cu        10.2254128721        1.5125298490        4.1275718116
 Cu         2.5729387395        1.4977781553        4.0944054579
 Cu        13.9726537600        8.1900848231        4.1191341951
 Cu        12.7683212948       10.3165454191        4.0809123830
 Cu         7.6436276332       10.2895860939        4.1384815515
 Cu         3.7346455877        8.1616592650        4.0650035245
 Cu        12.7383441213        1.5769452060        4.1751499632
 Cu         7.6125242806        1.5531402493        4.1334546100
 Cu         8.8574483307        8.0939296212        4.2086063298
 Cu        11.4583353796       12.6573897615        4.1392795742
 Cu         8.9438548583       12.5292468897        4.0433453424
 Cu         0.0617262242        6.0203612846        4.1637184487
 Cu        11.5047343015        8.1961559715        4.1302976135
 Cu         6.2633491797        8.1131568128        4.1967200890
 Cu         6.4144723182        3.6711269135        4.1043576118
 Cu         1.2826044007        8.1472753367        4.1650125423
 Cu        10.1395003546       10.4187908854        4.0165564743
 Cu         5.1416010082        5.9752319707        4.1575477495
 Cu        10.2092392809        5.9412604247        4.2511277857
 Cu        14.1516299885        3.8146299259        4.2017270284
 Cu        14.0288592932       12.6097184581        4.1889036891
 Cu         0.0450815048        1.4899288179        4.0848399709
 Cu         1.3782750166        3.7441266328        4.1261655811
 Cu        -0.0093156879       10.3474679306        4.0823072976
 Cu         8.9750780613        3.7397465948        4.1583804144
 Cu         7.6582336762        5.9035580115        4.1916941584
 Cu         3.8569781748        2.2418963620        6.3395487243
 Cu         5.1175365041        0.0633046612        6.0872493911
 Cu        12.7496149294        8.9759292358        6.2470318877
 Cu         5.2700318638        4.4317012616        6.2313300946
 Cu        11.4652347174        2.1707285201        6.2824210001
 Cu         8.9973051694        6.6752570516        6.2951467931
 Cu         3.8373050421       11.1911352296        6.2170569851
 Cu        12.7796068158        4.5646799325        6.2255868669
 Cu         6.5460711587       11.1082550619        6.0924394709
 Cu         2.5962736292        8.9455084219        6.0847162239
 Cu         1.4210955275       11.1201618867        6.4529350010
 Cu         7.6791733719        0.0277273393        6.0336590537
 Cu         6.4951785594        6.6717742408        6.3316633144
 Cu         6.4280685060        2.2234158132        6.2919353923
 Cu         3.8650131560        6.8222134569        6.1764876422
 Cu         2.6405156402        4.4241781825        6.1479435882
 Cu         0.0213639429        0.0618763385        6.2289621318
 Cu        11.4373310072       11.1293335043        5.9930857280
 Cu        10.2468919985        4.4648365983        6.2515941232
 Cu         7.5936337406        8.8956455981        6.2645003848
 Cu         2.6011968191        0.0895158757        6.4035615266
 Cu         5.0552335533        9.0382945594        6.2909069784
 Cu         1.3725365024        6.7443996485        6.2018201520
 Cu         9.0043924076        2.2126782691        6.1904854683
 Cu        12.7542208525        0.0284143573        6.2375651619
 Cu        14.0963280609        6.7942608838        6.0872892071
 Cu        10.0566081924       -0.0538039262        6.1436629176
 Cu        10.2970062935        8.8632526590        6.2092336186
 Cu         8.9950715625       11.0008860136        6.2516064500
 Cu        11.5535787778        6.7740486346        6.2324534915
 Cu        14.0629063431        2.2341682542        6.1742379466
 Cu         7.7696793667        4.3846332164        6.1893292195
 Cu         0.0624750257        8.8669059191        6.2011164001
 Cu         1.2277590490        2.2046937593        6.1390129648
 Cu        14.0771118280       11.1175162088        6.2508985929
 Cu        -0.0053240972        4.5209151574        6.2898922359
  O         2.4848505832       15.4270827498        9.5088806215
  O         3.5722544973       12.9396756505        9.6502214484
  O         9.2814008554       12.3622396197        9.0612910398
  O        -0.3865444801        0.9381984598        9.4463660123
  O        -1.3105652258        5.0659361254        9.4275621797
  O        -0.7721126474        7.6778054626        9.2113051773
  O        10.3663011920        6.6653435282        9.2268975314
  O        11.9040179755       13.0776816363        9.1730746866
  O         5.8672146183        9.9091584022        9.5552519322
  O        12.0861003096        5.0549166020       11.3060367607
  O        12.5471593655        9.3926063252        9.4152480225
  O         3.7731625096        2.4877369243       11.9333780127
  O        -2.2608389003       15.4135610382       12.1466188935
  O         6.4455299767        2.0074748968       10.9570075151
  O         8.7028872727        2.8006739432       13.1520353371
  O         0.7216621257        8.9886736214       10.8605474633
  O         2.4125300509       11.0356390568       11.5134820076
  O         5.1478260460       12.3199219848       12.8520614026
  O         1.3661655014        5.5947609404       10.8505038639
  O         9.2211553143        3.4552863247        9.4435122658
  O         8.7355862600        9.7387418312        9.4101693910
  O        -1.5942067888       12.4143194691       12.2608730630
  O         5.9946127811        6.0210867717       13.4074843558
  O        10.0908040761       14.1665161790       11.7611675804
  O         3.5633352464        4.9184330222       12.6930562225
  O         5.4418831693        8.7524340754       12.4966812695
  O         3.0737349754       13.8446957767       13.3355882784
  O         0.7165771513        2.7232137908       14.0846000974
  O        -2.7369710512        4.9385989401       13.7709419740
  O        11.2008276547        9.7429158492       12.4461992891
  O         7.6781908416       10.2836523043       12.2108348654
  O         0.2182811487        8.2175379543       13.5456182036
  O         6.6115915511        1.6009441833       14.6752812695
  O         1.0709826500       12.2469347010       13.5654573931
  O        -3.8443130178       12.5381588306       13.3968662668
  O         8.3123187486        5.2629438003       11.8249870705
  O         3.1681386982        2.2051627175       15.4285280816
  O         5.2736976943        3.9462965771       14.9863858330
  O         5.6971653608       11.0727512566       15.1214620330
  O         9.2918573196        7.8114083060       11.5481019406
  O        11.0940170184        2.6619101319       14.0411624362
  O         2.1868363473        5.9738597165       14.9337495741
  O         3.7736583981        8.4734816417       14.8867349767
  O         6.2825225539       14.1626037876       17.2195300798
  O        12.8925234579        9.1469775345       14.2151108790
  O        -0.2008981402        1.5363553997       16.2964551994
  O         3.0392281448        4.5259279081       17.6086196099
  O         4.5495110113       12.1308425764       17.2394243943
  O        -0.3630829267        5.1174165643       14.6971627411
  O        -0.7629753677        5.7254985711       17.4723647291
  O         1.3478622265        9.0326104380       15.9732218463
  O        11.3447708642        6.8860378663       15.2527215558
  O         8.5180818747       10.0671557216       14.9987243547
  O         0.2045521958       12.3701096861       16.1316032959
  O        10.7328213656       12.9390802565       18.4846067098
  O        -2.2065339571       10.9334772853       16.1276831602
  O         0.8894377379        3.2463087225       17.8414208458
  O         4.3485258035        7.4589441689       17.4731938328
  O        12.2807108498        1.3593333744       16.2249281614
  O         5.9302708830       10.3065283834       18.7672070436
  O        10.5248117190       11.6520343296       15.8933822415
  O         8.6560662298        7.4719570588       16.1236504918
  O         7.2358204249        3.4739477596       17.7168654264
  O         1.9625004511       11.0867973367       17.5505251502
  O         4.7413223033        4.5116574199       19.6023913936
  O         6.5165872394        5.7661363721       16.5851498392
  O        11.7388882991        6.6589641471       18.2442792112
  O         1.2739907870        7.3200015063       18.0410622610
  O         2.9399548093        6.3799903809       20.4058691145
  O        13.2411369405        4.7336497432       19.7065909366
  O        -2.3651421884        9.1404149456       18.2841153823
  O        -0.0434669445        3.2873814883       20.4150805784
  O         1.8700433555       10.4908905377       20.0819292196
  O         8.6149111878        9.4475025409       18.7162848818
  O        -2.1295964389        1.8409557311       21.3421636532
  O         3.8236215471        9.0125528187       20.5059787080
  O         5.0266765620        2.8130824031       22.5393701260
  O         8.0576410916       12.9579754471       18.9065452850
  O         9.3009161274        3.0861926437       19.4952967680
  O         9.6390644713        5.6709046657       19.5701802099
  O        -0.0851740060        8.5492041814       20.0333104914
  O        10.8290514812       10.5716598125       19.6754437925
  O         7.1112777175        6.4187955537       20.1084262324
  O         4.0759290944       13.3720162910       21.9505092992
  O         1.6350434128        2.8018940578       22.5268680652
  O        11.8219678982        2.2542808109       19.0519409762
  O        14.9640992979       13.6387097540       23.2007487268
  O         7.8020774054        3.8949583165       23.0695898566
  O         7.9772928675        9.6562807749       21.4464021662
  O        13.1976473141        7.6556859606       22.1650451674
  O         1.6583637427       -1.3407900922       22.6408178349
  O         0.9962860511        9.3235559752       23.1497312335
  O        11.2709760051        9.8591542248       22.6594817160
  O         9.9880285780       14.4970469137       22.9556657758
  O        12.2108907639        4.1101972540       22.8076881345
  O         3.3992780982        5.5080922637       22.9274423350
  O         6.0150437206        6.5599992110       22.8738325085
  O         5.9109086901       11.9277910576       23.0899349877
  O         8.0937750648       -0.6871464316       21.6009713229
  O         8.9071296032        7.8866718410       23.3115316712
  O         9.8855593764        5.4904532300       22.5162561740
  O         4.9211186561        9.4071929210       22.9330298947
  O        -1.6579685789       10.6652204158       23.6044215453
  H         2.6387074400        2.3233245008        8.5100623481
  H         9.1815846845       12.4157630093        8.0305968656
  H         3.2400998817       12.8938302238        8.6929418495
  H        -1.4736087982        4.8606804922        8.4914518334
  H        10.2228134497        5.8246666984        8.7775984257
  H        -0.7198434345        7.6747261804        8.2344677586
  H         0.5151972245        1.1531292155        9.3393587651
  H         2.9662551839        5.2460257344        8.5080226877
  H         5.1832257108        3.9906686439        8.5320361671
  H         3.0081312192        7.6749834200        9.3410374323
  H         7.1739359877        5.0817211774        9.0604533479
  H        14.6827396944       14.0321163358        8.5128227050
  H         2.6493375931       14.4401954977        9.7081652712
  H         7.2572557945        7.4466867347        9.9358517740
  H         3.9673276014        9.4756095319       10.4269636913
  H         9.0836849063       11.3899214077        9.2550010550
  H        -1.6299522354        8.1728652244        9.3803997079
  H        -3.1970043790       12.9790078046        8.2268950172
  H        10.6987998912        7.2252252104        8.5732589340
  H        -1.1253447570        6.0398317673        9.3537874905
  H         3.1064287465       12.1792919494       10.0334736895
  H        -2.4710000307        5.0566309549       10.6240910332
  H        11.9611446527        9.5863138942        8.6499771126
  H        11.4993267984        5.7139096456       11.0993712899
  H         3.3636532061        2.4288032786       11.0055341133
  H        -2.8987580542       15.6161203619       12.8547850164
  H         0.1398003295        8.4020352760       10.2464544963
  H         9.5676538960        2.7736572389       13.7213975510
  H         5.4950952452        2.2351061992       11.2021277958
  H        11.0487008627       12.6303278198        9.1906022341
  H         4.8626692675       11.5418616989       12.3579354992
  H         9.2311640033        9.2321695615        8.8113724297
  H         7.8272203050        9.4994680190        9.1840546979
  H         7.0823669589        2.5801039836       11.4659702854
  H         3.5647391997        3.4241213728       12.3315477527
  H         1.5348041156        6.2985917841       10.1659447869
  H        12.0499603186        9.7197527870       10.1810960106
  H         6.8715248814        5.8080561186       12.9659905952
  H        -2.1396047964       14.4568668016       12.0208398730
  H         8.8213824533        3.5465684662        8.5622948831
  H         1.9246674566       10.2808342134       11.1562055535
  H         8.0207435666        2.3261123460       13.6881255224
  H         4.2060536072       12.7377842756       13.0321495059
  H         2.1620132829        5.6068878805       11.3351512994
  H         3.2213569550       14.6093512362       12.6536473066
  H         2.0320210347       11.2899853380       12.3585095608
  H         6.1465108615        9.4423078445       12.4963878309
  H         9.5878534623        1.6046857446       12.2605588817
  H        -3.0207458771        5.1640267939       12.8038724523
  H         0.6828837394        8.6017502329       11.7875171960
  H         5.8754465298        7.9803399369       12.9109344442
  H         1.6176099847        2.7231362157       14.5099221050
  H        -2.3990702283       12.3275431308       12.7776633961
  H         0.2969643986        3.5893197474       14.3500032735
  H         4.4601289080        5.2388058273       12.5016856001
  H         8.2164981533        9.4778137174       11.8420012206
  H         8.8503321290        4.1706822178        9.9585349520
  H         9.4505909907       13.7136797639       11.1508664630
  H        -0.7343578590       12.5146386397       12.8614525348
  H        -3.2465991964        5.6879043751       14.2962676431
  H         5.7903409770        5.2733901100       14.0917852681
  H         6.1528793086        0.8492228432       14.1483719993
  H         3.2756935755        5.2642080319       13.6127759129
  H        11.0628411652       10.7292694084       12.6781517913
  H         3.1000502105       14.3392997798       14.1970325017
  H        10.8244393293       13.1029742790       12.9099066459
  H         0.0080059484        7.2527597068       13.6749264330
  H         5.5975109564       11.5160965184       14.2396218083
  H         9.8367251514        7.5151110120       10.8115207831
  H        11.7580677241        9.5783722850       13.1922501874
  H         1.7488948921       12.9658474643       13.6694528987
  H         8.0839910819       10.3179651972       13.1203205736
  H         1.3891596560        6.0983101422       14.4339308753
  H        -4.3524851784       12.3988452022       14.2551061082
  H        11.6232991711        3.5756913912       13.9979259575
  H         4.2987996894        8.6971235560       14.0816406478
  H         8.5868069417        4.5908617845       12.4457198778
  H         5.7728239707        4.2963754768       15.7000642293
  H         3.6570261621        3.0645754266       15.5411434162
  H         6.5982242627        1.3326545237       15.6261019699
  H         0.6914715381        8.5719889474       14.3705483430
  H         8.8090796585        6.1762477204       11.8871330965
  H        11.4909990746        2.1114227286       14.9216100381
  H         0.0608805002        1.9195511506       15.4204479526
  H         5.7064316151        3.1089521850       14.7355905555
  H         5.1696527837       10.2763479649       15.1351399211
  H         0.8580651778       12.0134905009       14.5129365008
  H         2.6704232939        6.8662904156       14.8319791935
  H         2.8941141152        1.9843412418       16.2873758466
  H         4.9615031385       11.7487613437       16.4004740067
  H         9.8408015835        8.5493621992       11.9976326491
  H        -1.6368387649        8.6658027174       13.8884235331
  H         2.9247996108        8.9923863173       14.8175641118
  H         2.8219860685        5.3333774067       17.1260010262
  H         7.5915764065       10.3564745828       15.2942282570
  H         5.5400530513       13.4572597845       17.1679242833
  H        -0.6974408468       11.9157478838       16.1718921831
  H         6.9126200127       13.6243161530       17.6957801909
  H        13.9668644783        5.1243489583       14.4334376852
  H        -2.2006569499        9.8055549162       14.9760236969
  H        11.7952236204        7.7825074748       15.1128292548
  H        -0.1118393644        6.4604326981       17.7095799546
  H         0.0380663512        0.5117916020       16.2635652187
  H        -0.3275405959        5.4051569942       15.6047081652
  H         5.0914110816       11.7455935925       17.9606600826
  H         1.2626428442        8.3123347773       16.7593513226
  H         0.6767595941        2.4005981216       17.3315977427
  H         2.1421015372        4.0289162240       17.6781796769
  H         4.1025890772        7.9865340015       16.7007892088
  H        13.3114611585        1.3789763306       16.2843852746
  H        11.1215990327       13.8500864411       18.5051178209
  H         8.5929092511        9.1260202659       15.3495945419
  H         0.2855435544        3.8280883804       17.3148648519
  H         1.5958373953        9.8658525323       16.4726358133
  H         9.2711002697        6.9060399083       15.6126266331
  H        12.1202422923       11.2238537270       16.2060008673
  H        -1.1248287651        5.4198665030       18.3486695019
  H         0.7921841124       11.9764115171       16.8508459870
  H         9.7509634150       -0.3041079697       18.6973922157
  H        11.5906534659        6.7771407680       16.2461120760
  H         2.8728153286       11.4200981562       17.4018940867
  H         6.8435898831        9.8447984996       18.8469057442
  H        10.4672155227       12.2551990092       16.6910482986
  H         4.0584826166        4.5845923742       18.8267178414
  H         9.7335632182       11.1040895458       15.7793434854
  H         6.8860774927        2.5336956467       17.6446857139
  H         4.8981349550        7.9649337015       18.0557880779
  H        -2.1256036839       10.2404503741       16.7857106468
  H         5.6928895015        6.1659531371       16.8973955395
  H         7.7937346731        6.9183037872       16.0703107095
  H         5.1982994979        3.6253854434       19.6920605855
  H        12.1501647510        1.9488559169       16.9949803446
  H         6.7844819952        5.1100087593       17.2081150777
  H         5.4834187548       10.1042357397       19.6580141903
  H         3.6505853470        5.7466748956       20.2221499879
  H         0.1954295703        3.2948566953       19.4162483614
  H         2.0065814069       10.7882634084       18.5701375791
  H        12.3134793053        5.9809929173       18.6414841004
  H         2.6955554288        6.2637857257       21.3534231551
  H         2.2494072287        7.2042998227       18.3160860029
  H         8.0863763498        3.4386028541       18.2315838261
  H        12.4815491751        8.2723144041       18.3114950001
  H        -1.3159445537        4.4550724876       20.2965003670
  H         8.6460380904        9.4028869135       17.7443572540
  H        10.8065275857        6.3876467216       18.4866482285
  H         0.8681830552        7.7546852689       18.8798727094
  H         4.8135112015        2.8629309268       23.5138007537
  H        -2.5902045717       15.8379020675       21.9297193203
  H         3.6998094671        8.0307697696       20.3618036113
  H        -1.7455717048        8.9563607010       19.0286935442
  H        -1.4465595875        2.4684651059       20.9252529174
  H         2.6293730185        9.8745699446       20.3612720416
  H        12.9024138221        3.8047113094       19.3593059691
  H         0.7869150830        3.3340380436       21.0437158389
  H         6.4938234735        5.6909758048       19.7957426267
  H         7.7913353285       -1.3094156210       18.9583885093
  H         1.8318672057       11.2590788707       20.6638984166
  H        11.4857321903        9.9747678477       19.3547991303
  H         4.3492584259        3.3473375585       22.1060858381
  H         9.4966076637        9.8755115858       19.0213815764
  H         8.7321533578        6.0454866449       19.7511596163
  H         6.7381300312        6.5709553671       21.0327138983
  H         9.5960807753        4.0626571109       19.3158546662
  H         4.2361911249        0.9322064972       22.4292167307
  H         9.2040476664        2.8717105276       20.5023542721
  H        11.1519801083       11.4476380974       19.3369734159
  H        -1.0155194581       14.0534188216       22.5666043577
  H         4.2879603754        9.0568131863       21.4728160854
  H        10.8326510228        2.3971706706       19.1561532906
  H         7.0206612197        3.5442653457       22.6230715551
  H        -0.5682909981        8.2269573035       20.8491918372
  H         8.1590524936        9.3650290712       20.5164159116
  H         7.8408644657       13.2021304739       19.8406808113
  H         0.5607363281        9.2311033969       20.3533185631
  H        10.1561501478        5.6466901989       20.4415220996
  H         0.8228612675       -0.9107840100       22.8376512983
  H         3.3021463177       -0.3249167963       22.4631888968
  H         8.0415485623       10.6255235449       21.3949002362
  H         1.1243315974        2.1820529814       23.0545506040
  H         1.9593766482        3.4765059012       23.1492479822
  H        12.1333052438        1.8058405762       19.9354073370
  H        14.7649139414       14.1404096963       24.0862768788
  H        11.0056982174        9.9952873986       21.7128514276
  H        12.4402052985        8.1676560899       22.4521596975
  H         5.8257482627        7.4119271954       23.3218195250
  H         7.5924810829        3.7615723569       24.0379323343
  H         5.2095023369       12.5270040901       22.6609838602
  H        12.9378411609        6.7598536175       22.5511277819
  H        10.8029149858       14.0941380478       23.2320964753
  H         1.2508671809        8.6107668200       23.7207113060
  H        11.5005622078       18.0058507896       22.9523875194
  H         0.0266081455        9.3108632588       23.1713545593
  H         4.2881041237        5.8919190250       22.7486376348
  H        10.5818945113        9.3171689703       23.0803086219
  H         8.4865843755        8.5910518955       22.6813519070
  H         1.5924721621       -2.2744682757       23.0932764758
  H         7.3002310801       -0.8717766223       22.1828023387
  H         9.0358863521        5.0199958207       22.7956259021
  H         9.6946279441        6.4699516772       22.6261269445
  H         5.3634319637       10.3096113618       23.0981274751
  H         4.1837788597        9.4851001468       23.5709198551
  H         8.5568084606        7.9611327104       24.2661026150
  H        12.7424406033       10.4251990766       23.3640188208
  H         9.3729829151       14.5835218729       23.7269095057
  H        12.3537256108        3.7733433039       23.6989099617
  H         5.9688512959       11.9579173822       24.1109558792
  H         6.8285043324        6.1487905265       23.3061387006
  H        -1.6302076845       11.6608411101       23.6021903063
  H         3.1935022924        5.5875155502       23.8560738690
  H         8.7299920389       -0.2468829610       22.2055134231
  C         3.7944997546        5.7066649463        8.9434752949
  C         4.9717444057        5.0249475578        8.9616611512
  C         3.8858574288        7.0385579940        9.3519229271
  C         6.2338868508        5.6600111694        9.2153912624
  C         6.3283553602        7.0196485142        9.5789809211
  C         5.0936088975        7.6856993908        9.6914775274
  C         4.9296443602        9.1798852224        9.9236746644
  K        11.7118811942        2.5098327226        9.6620198473
  K         0.1870981162        3.0930713099       11.2154728325
  K        -0.9083709614       11.4383356123        9.9800509739
  K         6.4056403329       12.6106660045       10.0191277610
